/*--------------------------------*- C++ -*----------------------------------*\
| =========                 |                                                 |
| \\      /  F ield         | OpenFOAM: The Open Source CFD Toolbox           |
|  \\    /   O peration     | Version:  2312                                  |
|   \\  /    A nd           | Website:  www.openfoam.com                      |
|    \\/     M anipulation  |                                                 |
\*---------------------------------------------------------------------------*/
FoamFile
{
    version     2.0;
    format      ascii;
    arch        "LSB;label=32;scalar=64";
    class       polyBoundaryMesh;
    location    "constant/polyMesh";
    object      boundary;
}
// * * * * * * * * * * * * * * * * * * * * * * * * * * * * * * * * * * * * * //

4
(
    topPatch
    {
        type            patch;
        nFaces          1768;
        startFace       125400;
    }
    wall
    {
        type            wall;
        inGroups        1(wall);
        nFaces          11206;
        startFace       127168;
    }
    bottomPatch
    {
        type            patch;
        nFaces          0;
        startFace       138374;
    }
    procBoundary1to0
    {
        type            processor;
        inGroups        1(processor);
        nFaces          244;
        startFace       138374;
        matchTolerance  0.0001;
        transform       unknown;
        myProcNo        1;
        neighbProcNo    0;
    }
)

// ************************************************************************* //
