/*--------------------------------*- C++ -*----------------------------------*\
| =========                 |                                                 |
| \\      /  F ield         | OpenFOAM: The Open Source CFD Toolbox           |
|  \\    /   O peration     | Version:  2312                                  |
|   \\  /    A nd           | Website:  www.openfoam.com                      |
|    \\/     M anipulation  |                                                 |
\*---------------------------------------------------------------------------*/
FoamFile
{
    version     2.0;
    format      ascii;
    arch        "LSB;label=32;scalar=64";
    class       polyBoundaryMesh;
    location    "constant/polyMesh";
    object      boundary;
}
// * * * * * * * * * * * * * * * * * * * * * * * * * * * * * * * * * * * * * //

3
(
    movingWall
    {
        type            patch;
        nFaces          100;
        startFace       1275;
    }
    fixedWalls
    {
        type            patch;
        nFaces          300;
        startFace       1375;
    }
    frontAndBack
    {
        type            patch;
        nFaces          50;
        startFace       1675;
    }
)

// ************************************************************************* //
