/*--------------------------------*- C++ -*----------------------------------*\
| =========                 |                                                 |
| \\      /  F ield         | OpenFOAM: The Open Source CFD Toolbox           |
|  \\    /   O peration     | Version:  2312                                  |
|   \\  /    A nd           | Website:  www.openfoam.com                      |
|    \\/     M anipulation  |                                                 |
\*---------------------------------------------------------------------------*/
FoamFile
{
    version     2.0;
    format      ascii;
    arch        "LSB;label=32;scalar=64";
    class       polyBoundaryMesh;
    location    "constant/polyMesh";
    object      boundary;
}
// * * * * * * * * * * * * * * * * * * * * * * * * * * * * * * * * * * * * * //

4
(
    topPatch
    {
        type            patch;
        nFaces          1768;
        startFace       125280;
    }
    wall
    {
        type            wall;
        inGroups        1(wall);
        nFaces          11199;
        startFace       127048;
    }
    bottomPatch
    {
        type            patch;
        nFaces          0;
        startFace       138247;
    }
    procBoundary3to2
    {
        type            processor;
        inGroups        1(processor);
        nFaces          245;
        startFace       138247;
        matchTolerance  0.0001;
        transform       unknown;
        myProcNo        3;
        neighbProcNo    2;
    }
)

// ************************************************************************* //
