/*--------------------------------*- C++ -*----------------------------------*\
| =========                 |                                                 |
| \\      /  F ield         | OpenFOAM: The Open Source CFD Toolbox           |
|  \\    /   O peration     | Version:  2312                                  |
|   \\  /    A nd           | Website:  www.openfoam.com                      |
|    \\/     M anipulation  |                                                 |
\*---------------------------------------------------------------------------*/
FoamFile
{
    version     2.0;
    format      ascii;
    arch        "LSB;label=32;scalar=64";
    class       featureEdgeMesh;
    location    "constant/triSurface";
    object      cylinder.eMesh;
}
// * * * * * * * * * * * * * * * * * * * * * * * * * * * * * * * * * * * * * //


// points:

252
(
(5 0 0)
(4.99378 0.249229 0)
(4.99378 0.249229 100)
(5 0 100)
(4.97515 0.497839 100)
(4.97515 0.497839 0)
(4.94415 0.745211 100)
(4.90086 0.990731 100)
(4.94415 0.745211 0)
(4.90086 0.990731 0)
(4.84539 1.23379 100)
(4.84539 1.23379 0)
(4.77786 1.47378 100)
(4.69846 1.7101 100)
(4.77786 1.47378 0)
(4.60738 1.94217 100)
(4.69846 1.7101 0)
(4.60738 1.94217 0)
(4.50484 2.16942 100)
(4.50484 2.16942 0)
(4.39111 2.39127 100)
(4.39111 2.39127 0)
(4.26645 2.60718 0)
(4.26645 2.60718 100)
(4.13119 2.8166 0)
(4.13119 2.8166 100)
(3.98566 3.01902 0)
(3.98566 3.01902 100)
(3.83022 3.21394 0)
(3.83022 3.21394 100)
(3.66526 3.40086 100)
(3.66526 3.40086 0)
(3.49118 3.57933 100)
(3.49118 3.57933 0)
(3.30843 3.74891 100)
(3.30843 3.74891 0)
(3.11745 3.90916 100)
(2.91872 4.05969 100)
(3.11745 3.90916 0)
(2.71273 4.20013 100)
(2.91872 4.05969 0)
(2.71273 4.20013 0)
(2.5 4.33013 100)
(2.28105 4.44936 100)
(2.5 4.33013 0)
(2.28105 4.44936 0)
(2.05644 4.55753 100)
(2.05644 4.55753 0)
(1.82671 4.65437 100)
(1.82671 4.65437 0)
(1.59243 4.73964 100)
(1.59243 4.73964 0)
(1.3542 4.81312 100)
(1.11261 4.87464 100)
(1.3542 4.81312 0)
(0.868241 4.92404 100)
(1.11261 4.87464 0)
(0.868241 4.92404 0)
(0.621719 4.9612 100)
(0.621719 4.9612 0)
(0.37365 4.98602 100)
(0.37365 4.98602 0)
(0.124653 4.99845 100)
(0.124653 4.99845 0)
(-0.124653 4.99845 100)
(-0.124653 4.99845 0)
(-0.37365 4.98602 100)
(-0.37365 4.98602 0)
(-0.621719 4.9612 100)
(-0.868241 4.92404 100)
(-0.621719 4.9612 0)
(-0.868241 4.92404 0)
(-1.11261 4.87464 0)
(-1.11261 4.87464 100)
(-1.3542 4.81312 100)
(-1.3542 4.81312 0)
(-1.59243 4.73964 100)
(-1.59243 4.73964 0)
(-1.82671 4.65437 0)
(-1.82671 4.65437 100)
(-2.05644 4.55753 0)
(-2.05644 4.55753 100)
(-2.28105 4.44936 0)
(-2.28105 4.44936 100)
(-2.5 4.33013 0)
(-2.5 4.33013 100)
(-2.71273 4.20013 0)
(-2.71273 4.20013 100)
(-2.91872 4.05969 0)
(-2.91872 4.05969 100)
(-3.11745 3.90916 0)
(-3.11745 3.90916 100)
(-3.30843 3.74891 0)
(-3.30843 3.74891 100)
(-3.49118 3.57933 0)
(-3.49118 3.57933 100)
(-3.66526 3.40086 100)
(-3.66526 3.40086 0)
(-3.83022 3.21394 100)
(-3.83022 3.21394 0)
(-3.98566 3.01902 100)
(-3.98566 3.01902 0)
(-4.13119 2.8166 100)
(-4.13119 2.8166 0)
(-4.26645 2.60718 100)
(-4.26645 2.60718 0)
(-4.39111 2.39127 100)
(-4.39111 2.39127 0)
(-4.50484 2.16942 100)
(-4.60738 1.94217 100)
(-4.50484 2.16942 0)
(-4.60738 1.94217 0)
(-4.69846 1.7101 100)
(-4.69846 1.7101 0)
(-4.77786 1.47378 100)
(-4.77786 1.47378 0)
(-4.84539 1.23379 100)
(-4.84539 1.23379 0)
(-4.90086 0.990731 100)
(-4.90086 0.990731 0)
(-4.94415 0.745211 100)
(-4.94415 0.745211 0)
(-4.97515 0.497839 100)
(-4.97515 0.497839 0)
(-4.99378 0.249229 0)
(-4.99378 0.249229 100)
(-5 0 0)
(-5 0 100)
(-4.99378 -0.249229 0)
(-4.99378 -0.249229 100)
(-4.97515 -0.497839 0)
(-4.97515 -0.497839 100)
(-4.94415 -0.745211 0)
(-4.94415 -0.745211 100)
(-4.90086 -0.990731 0)
(-4.90086 -0.990731 100)
(-4.84539 -1.23379 0)
(-4.84539 -1.23379 100)
(-4.77786 -1.47378 0)
(-4.77786 -1.47378 100)
(-4.69846 -1.7101 0)
(-4.69846 -1.7101 100)
(-4.60738 -1.94217 0)
(-4.60738 -1.94217 100)
(-4.50484 -2.16942 0)
(-4.50484 -2.16942 100)
(-4.39111 -2.39127 0)
(-4.39111 -2.39127 100)
(-4.26645 -2.60718 0)
(-4.26645 -2.60718 100)
(-4.13119 -2.8166 100)
(-4.13119 -2.8166 0)
(-3.98566 -3.01902 0)
(-3.98566 -3.01902 100)
(-3.83022 -3.21394 0)
(-3.83022 -3.21394 100)
(-3.66526 -3.40086 0)
(-3.66526 -3.40086 100)
(-3.49118 -3.57933 0)
(-3.49118 -3.57933 100)
(-3.30843 -3.74891 0)
(-3.30843 -3.74891 100)
(-3.11745 -3.90916 0)
(-3.11745 -3.90916 100)
(-2.91872 -4.05969 0)
(-2.91872 -4.05969 100)
(-2.71273 -4.20013 100)
(-2.71273 -4.20013 0)
(-2.5 -4.33013 100)
(-2.5 -4.33013 0)
(-2.28105 -4.44936 100)
(-2.28105 -4.44936 0)
(-2.05644 -4.55753 100)
(-1.82671 -4.65437 100)
(-2.05644 -4.55753 0)
(-1.82671 -4.65437 0)
(-1.59243 -4.73964 0)
(-1.59243 -4.73964 100)
(-1.3542 -4.81312 0)
(-1.3542 -4.81312 100)
(-1.11261 -4.87464 0)
(-1.11261 -4.87464 100)
(-0.868241 -4.92404 0)
(-0.868241 -4.92404 100)
(-0.621719 -4.9612 0)
(-0.621719 -4.9612 100)
(-0.37365 -4.98602 0)
(-0.37365 -4.98602 100)
(-0.124653 -4.99845 100)
(-0.124653 -4.99845 0)
(0.124653 -4.99845 0)
(0.124653 -4.99845 100)
(0.37365 -4.98602 0)
(0.37365 -4.98602 100)
(0.621719 -4.9612 0)
(0.621719 -4.9612 100)
(0.868241 -4.92404 0)
(0.868241 -4.92404 100)
(1.11261 -4.87464 0)
(1.11261 -4.87464 100)
(1.3542 -4.81312 100)
(1.3542 -4.81312 0)
(1.59243 -4.73964 100)
(1.59243 -4.73964 0)
(1.82671 -4.65437 100)
(1.82671 -4.65437 0)
(2.05644 -4.55753 100)
(2.05644 -4.55753 0)
(2.28105 -4.44936 100)
(2.28105 -4.44936 0)
(2.5 -4.33013 100)
(2.5 -4.33013 0)
(2.71273 -4.20013 100)
(2.71273 -4.20013 0)
(2.91872 -4.05969 100)
(2.91872 -4.05969 0)
(3.11745 -3.90916 100)
(3.30843 -3.74891 100)
(3.11745 -3.90916 0)
(3.30843 -3.74891 0)
(3.49118 -3.57933 100)
(3.66526 -3.40086 100)
(3.49118 -3.57933 0)
(3.66526 -3.40086 0)
(3.83022 -3.21394 0)
(3.83022 -3.21394 100)
(3.98566 -3.01902 100)
(3.98566 -3.01902 0)
(4.13119 -2.8166 0)
(4.13119 -2.8166 100)
(4.26645 -2.60718 0)
(4.26645 -2.60718 100)
(4.39111 -2.39127 100)
(4.39111 -2.39127 0)
(4.50484 -2.16942 100)
(4.50484 -2.16942 0)
(4.60738 -1.94217 100)
(4.69846 -1.7101 100)
(4.60738 -1.94217 0)
(4.69846 -1.7101 0)
(4.77786 -1.47378 100)
(4.84539 -1.23379 100)
(4.77786 -1.47378 0)
(4.84539 -1.23379 0)
(4.90086 -0.990731 100)
(4.94415 -0.745211 100)
(4.90086 -0.990731 0)
(4.94415 -0.745211 0)
(4.97515 -0.497839 100)
(4.97515 -0.497839 0)
(4.99378 -0.249229 100)
(4.99378 -0.249229 0)
)


// edges:

252
(
(0 1)
(2 3)
(4 2)
(1 5)
(6 4)
(7 6)
(5 8)
(8 9)
(10 7)
(9 11)
(12 10)
(13 12)
(11 14)
(15 13)
(14 16)
(16 17)
(18 15)
(17 19)
(20 18)
(19 21)
(21 22)
(23 20)
(22 24)
(25 23)
(24 26)
(27 25)
(26 28)
(29 27)
(30 29)
(28 31)
(32 30)
(31 33)
(34 32)
(33 35)
(36 34)
(37 36)
(35 38)
(39 37)
(38 40)
(40 41)
(42 39)
(43 42)
(41 44)
(44 45)
(46 43)
(45 47)
(48 46)
(47 49)
(50 48)
(49 51)
(52 50)
(53 52)
(51 54)
(55 53)
(54 56)
(56 57)
(58 55)
(57 59)
(60 58)
(59 61)
(62 60)
(61 63)
(64 62)
(63 65)
(66 64)
(65 67)
(68 66)
(69 68)
(67 70)
(70 71)
(71 72)
(73 69)
(74 73)
(72 75)
(76 74)
(75 77)
(77 78)
(79 76)
(78 80)
(81 79)
(80 82)
(83 81)
(82 84)
(85 83)
(84 86)
(87 85)
(86 88)
(89 87)
(88 90)
(91 89)
(90 92)
(93 91)
(92 94)
(95 93)
(96 95)
(94 97)
(98 96)
(97 99)
(100 98)
(99 101)
(102 100)
(101 103)
(104 102)
(103 105)
(106 104)
(105 107)
(108 106)
(109 108)
(107 110)
(110 111)
(112 109)
(111 113)
(114 112)
(113 115)
(116 114)
(115 117)
(118 116)
(117 119)
(120 118)
(119 121)
(122 120)
(121 123)
(123 124)
(125 122)
(124 126)
(127 125)
(126 128)
(129 127)
(128 130)
(131 129)
(130 132)
(133 131)
(132 134)
(135 133)
(134 136)
(137 135)
(136 138)
(139 137)
(138 140)
(141 139)
(140 142)
(143 141)
(142 144)
(145 143)
(144 146)
(147 145)
(146 148)
(149 147)
(150 149)
(148 151)
(151 152)
(153 150)
(152 154)
(155 153)
(154 156)
(157 155)
(156 158)
(159 157)
(158 160)
(161 159)
(160 162)
(163 161)
(162 164)
(165 163)
(166 165)
(164 167)
(168 166)
(167 169)
(170 168)
(169 171)
(172 170)
(173 172)
(171 174)
(174 175)
(175 176)
(177 173)
(176 178)
(179 177)
(178 180)
(181 179)
(180 182)
(183 181)
(182 184)
(185 183)
(184 186)
(187 185)
(188 187)
(186 189)
(189 190)
(191 188)
(190 192)
(193 191)
(192 194)
(195 193)
(194 196)
(197 195)
(196 198)
(199 197)
(200 199)
(198 201)
(202 200)
(201 203)
(204 202)
(203 205)
(206 204)
(205 207)
(208 206)
(207 209)
(210 208)
(209 211)
(212 210)
(211 213)
(214 212)
(213 215)
(216 214)
(217 216)
(215 218)
(218 219)
(220 217)
(221 220)
(219 222)
(222 223)
(223 224)
(225 221)
(226 225)
(224 227)
(227 228)
(229 226)
(228 230)
(231 229)
(232 231)
(230 233)
(234 232)
(233 235)
(236 234)
(237 236)
(235 238)
(238 239)
(240 237)
(241 240)
(239 242)
(242 243)
(244 241)
(245 244)
(243 246)
(246 247)
(248 245)
(247 249)
(250 248)
(249 251)
(3 250)
(251 0)
)

// * * * * * * * * * * * * * * * * * * * * * * * * * * * * * * * * * * * * * //


// ************************************************************************* //
