/*--------------------------------*- C++ -*----------------------------------*\
| =========                 |                                                 |
| \\      /  F ield         | OpenFOAM: The Open Source CFD Toolbox           |
|  \\    /   O peration     | Version:  2312                                  |
|   \\  /    A nd           | Website:  www.openfoam.com                      |
|    \\/     M anipulation  |                                                 |
\*---------------------------------------------------------------------------*/
FoamFile
{
    version     2.0;
    format      ascii;
    arch        "LSB;label=32;scalar=64";
    class       polyBoundaryMesh;
    location    "constant/polyMesh";
    object      boundary;
}
// * * * * * * * * * * * * * * * * * * * * * * * * * * * * * * * * * * * * * //

3
(
    topPatch
    {
        type            patch;
        nFaces          1768;
        startFace       500044;
    }
    wall
    {
        type            wall;
        inGroups        1(wall);
        nFaces          46048;
        startFace       501812;
    }
    bottomPatch
    {
        type            patch;
        nFaces          1768;
        startFace       547860;
    }
)

// ************************************************************************* //
