/*--------------------------------*- C++ -*----------------------------------*\
| =========                 |                                                 |
| \\      /  F ield         | OpenFOAM: The Open Source CFD Toolbox           |
|  \\    /   O peration     | Version:  2312                                  |
|   \\  /    A nd           | Website:  www.openfoam.com                      |
|    \\/     M anipulation  |                                                 |
\*---------------------------------------------------------------------------*/
FoamFile
{
    version     2.0;
    format      ascii;
    arch        "LSB;label=32;scalar=64";
    class       extendedFeatureEdgeMesh;
    location    "constant/extendedFeatureEdgeMesh";
    object      cylinder.extendedFeatureEdgeMesh;
}
// * * * * * * * * * * * * * * * * * * * * * * * * * * * * * * * * * * * * * //

// points

252
(
(5 0 0)
(4.99378 0.249229 0)
(4.99378 0.249229 100)
(5 0 100)
(4.97515 0.497839 100)
(4.97515 0.497839 0)
(4.94415 0.745211 100)
(4.90086 0.990731 100)
(4.94415 0.745211 0)
(4.90086 0.990731 0)
(4.84539 1.23379 100)
(4.84539 1.23379 0)
(4.77786 1.47378 100)
(4.69846 1.7101 100)
(4.77786 1.47378 0)
(4.60738 1.94217 100)
(4.69846 1.7101 0)
(4.60738 1.94217 0)
(4.50484 2.16942 100)
(4.50484 2.16942 0)
(4.39111 2.39127 100)
(4.39111 2.39127 0)
(4.26645 2.60718 0)
(4.26645 2.60718 100)
(4.13119 2.8166 0)
(4.13119 2.8166 100)
(3.98566 3.01902 0)
(3.98566 3.01902 100)
(3.83022 3.21394 0)
(3.83022 3.21394 100)
(3.66526 3.40086 100)
(3.66526 3.40086 0)
(3.49118 3.57933 100)
(3.49118 3.57933 0)
(3.30843 3.74891 100)
(3.30843 3.74891 0)
(3.11745 3.90916 100)
(2.91872 4.05969 100)
(3.11745 3.90916 0)
(2.71273 4.20013 100)
(2.91872 4.05969 0)
(2.71273 4.20013 0)
(2.5 4.33013 100)
(2.28105 4.44936 100)
(2.5 4.33013 0)
(2.28105 4.44936 0)
(2.05644 4.55753 100)
(2.05644 4.55753 0)
(1.82671 4.65437 100)
(1.82671 4.65437 0)
(1.59243 4.73964 100)
(1.59243 4.73964 0)
(1.3542 4.81312 100)
(1.11261 4.87464 100)
(1.3542 4.81312 0)
(0.868241 4.92404 100)
(1.11261 4.87464 0)
(0.868241 4.92404 0)
(0.621719 4.9612 100)
(0.621719 4.9612 0)
(0.37365 4.98602 100)
(0.37365 4.98602 0)
(0.124653 4.99845 100)
(0.124653 4.99845 0)
(-0.124653 4.99845 100)
(-0.124653 4.99845 0)
(-0.37365 4.98602 100)
(-0.37365 4.98602 0)
(-0.621719 4.9612 100)
(-0.868241 4.92404 100)
(-0.621719 4.9612 0)
(-0.868241 4.92404 0)
(-1.11261 4.87464 0)
(-1.11261 4.87464 100)
(-1.3542 4.81312 100)
(-1.3542 4.81312 0)
(-1.59243 4.73964 100)
(-1.59243 4.73964 0)
(-1.82671 4.65437 0)
(-1.82671 4.65437 100)
(-2.05644 4.55753 0)
(-2.05644 4.55753 100)
(-2.28105 4.44936 0)
(-2.28105 4.44936 100)
(-2.5 4.33013 0)
(-2.5 4.33013 100)
(-2.71273 4.20013 0)
(-2.71273 4.20013 100)
(-2.91872 4.05969 0)
(-2.91872 4.05969 100)
(-3.11745 3.90916 0)
(-3.11745 3.90916 100)
(-3.30843 3.74891 0)
(-3.30843 3.74891 100)
(-3.49118 3.57933 0)
(-3.49118 3.57933 100)
(-3.66526 3.40086 100)
(-3.66526 3.40086 0)
(-3.83022 3.21394 100)
(-3.83022 3.21394 0)
(-3.98566 3.01902 100)
(-3.98566 3.01902 0)
(-4.13119 2.8166 100)
(-4.13119 2.8166 0)
(-4.26645 2.60718 100)
(-4.26645 2.60718 0)
(-4.39111 2.39127 100)
(-4.39111 2.39127 0)
(-4.50484 2.16942 100)
(-4.60738 1.94217 100)
(-4.50484 2.16942 0)
(-4.60738 1.94217 0)
(-4.69846 1.7101 100)
(-4.69846 1.7101 0)
(-4.77786 1.47378 100)
(-4.77786 1.47378 0)
(-4.84539 1.23379 100)
(-4.84539 1.23379 0)
(-4.90086 0.990731 100)
(-4.90086 0.990731 0)
(-4.94415 0.745211 100)
(-4.94415 0.745211 0)
(-4.97515 0.497839 100)
(-4.97515 0.497839 0)
(-4.99378 0.249229 0)
(-4.99378 0.249229 100)
(-5 0 0)
(-5 0 100)
(-4.99378 -0.249229 0)
(-4.99378 -0.249229 100)
(-4.97515 -0.497839 0)
(-4.97515 -0.497839 100)
(-4.94415 -0.745211 0)
(-4.94415 -0.745211 100)
(-4.90086 -0.990731 0)
(-4.90086 -0.990731 100)
(-4.84539 -1.23379 0)
(-4.84539 -1.23379 100)
(-4.77786 -1.47378 0)
(-4.77786 -1.47378 100)
(-4.69846 -1.7101 0)
(-4.69846 -1.7101 100)
(-4.60738 -1.94217 0)
(-4.60738 -1.94217 100)
(-4.50484 -2.16942 0)
(-4.50484 -2.16942 100)
(-4.39111 -2.39127 0)
(-4.39111 -2.39127 100)
(-4.26645 -2.60718 0)
(-4.26645 -2.60718 100)
(-4.13119 -2.8166 100)
(-4.13119 -2.8166 0)
(-3.98566 -3.01902 0)
(-3.98566 -3.01902 100)
(-3.83022 -3.21394 0)
(-3.83022 -3.21394 100)
(-3.66526 -3.40086 0)
(-3.66526 -3.40086 100)
(-3.49118 -3.57933 0)
(-3.49118 -3.57933 100)
(-3.30843 -3.74891 0)
(-3.30843 -3.74891 100)
(-3.11745 -3.90916 0)
(-3.11745 -3.90916 100)
(-2.91872 -4.05969 0)
(-2.91872 -4.05969 100)
(-2.71273 -4.20013 100)
(-2.71273 -4.20013 0)
(-2.5 -4.33013 100)
(-2.5 -4.33013 0)
(-2.28105 -4.44936 100)
(-2.28105 -4.44936 0)
(-2.05644 -4.55753 100)
(-1.82671 -4.65437 100)
(-2.05644 -4.55753 0)
(-1.82671 -4.65437 0)
(-1.59243 -4.73964 0)
(-1.59243 -4.73964 100)
(-1.3542 -4.81312 0)
(-1.3542 -4.81312 100)
(-1.11261 -4.87464 0)
(-1.11261 -4.87464 100)
(-0.868241 -4.92404 0)
(-0.868241 -4.92404 100)
(-0.621719 -4.9612 0)
(-0.621719 -4.9612 100)
(-0.37365 -4.98602 0)
(-0.37365 -4.98602 100)
(-0.124653 -4.99845 100)
(-0.124653 -4.99845 0)
(0.124653 -4.99845 0)
(0.124653 -4.99845 100)
(0.37365 -4.98602 0)
(0.37365 -4.98602 100)
(0.621719 -4.9612 0)
(0.621719 -4.9612 100)
(0.868241 -4.92404 0)
(0.868241 -4.92404 100)
(1.11261 -4.87464 0)
(1.11261 -4.87464 100)
(1.3542 -4.81312 100)
(1.3542 -4.81312 0)
(1.59243 -4.73964 100)
(1.59243 -4.73964 0)
(1.82671 -4.65437 100)
(1.82671 -4.65437 0)
(2.05644 -4.55753 100)
(2.05644 -4.55753 0)
(2.28105 -4.44936 100)
(2.28105 -4.44936 0)
(2.5 -4.33013 100)
(2.5 -4.33013 0)
(2.71273 -4.20013 100)
(2.71273 -4.20013 0)
(2.91872 -4.05969 100)
(2.91872 -4.05969 0)
(3.11745 -3.90916 100)
(3.30843 -3.74891 100)
(3.11745 -3.90916 0)
(3.30843 -3.74891 0)
(3.49118 -3.57933 100)
(3.66526 -3.40086 100)
(3.49118 -3.57933 0)
(3.66526 -3.40086 0)
(3.83022 -3.21394 0)
(3.83022 -3.21394 100)
(3.98566 -3.01902 100)
(3.98566 -3.01902 0)
(4.13119 -2.8166 0)
(4.13119 -2.8166 100)
(4.26645 -2.60718 0)
(4.26645 -2.60718 100)
(4.39111 -2.39127 100)
(4.39111 -2.39127 0)
(4.50484 -2.16942 100)
(4.50484 -2.16942 0)
(4.60738 -1.94217 100)
(4.69846 -1.7101 100)
(4.60738 -1.94217 0)
(4.69846 -1.7101 0)
(4.77786 -1.47378 100)
(4.84539 -1.23379 100)
(4.77786 -1.47378 0)
(4.84539 -1.23379 0)
(4.90086 -0.990731 100)
(4.94415 -0.745211 100)
(4.90086 -0.990731 0)
(4.94415 -0.745211 0)
(4.97515 -0.497839 100)
(4.97515 -0.497839 0)
(4.99378 -0.249229 100)
(4.99378 -0.249229 0)
)

// edges

252
(
(0 1)
(2 3)
(4 2)
(1 5)
(6 4)
(7 6)
(5 8)
(8 9)
(10 7)
(9 11)
(12 10)
(13 12)
(11 14)
(15 13)
(14 16)
(16 17)
(18 15)
(17 19)
(20 18)
(19 21)
(21 22)
(23 20)
(22 24)
(25 23)
(24 26)
(27 25)
(26 28)
(29 27)
(30 29)
(28 31)
(32 30)
(31 33)
(34 32)
(33 35)
(36 34)
(37 36)
(35 38)
(39 37)
(38 40)
(40 41)
(42 39)
(43 42)
(41 44)
(44 45)
(46 43)
(45 47)
(48 46)
(47 49)
(50 48)
(49 51)
(52 50)
(53 52)
(51 54)
(55 53)
(54 56)
(56 57)
(58 55)
(57 59)
(60 58)
(59 61)
(62 60)
(61 63)
(64 62)
(63 65)
(66 64)
(65 67)
(68 66)
(69 68)
(67 70)
(70 71)
(71 72)
(73 69)
(74 73)
(72 75)
(76 74)
(75 77)
(77 78)
(79 76)
(78 80)
(81 79)
(80 82)
(83 81)
(82 84)
(85 83)
(84 86)
(87 85)
(86 88)
(89 87)
(88 90)
(91 89)
(90 92)
(93 91)
(92 94)
(95 93)
(96 95)
(94 97)
(98 96)
(97 99)
(100 98)
(99 101)
(102 100)
(101 103)
(104 102)
(103 105)
(106 104)
(105 107)
(108 106)
(109 108)
(107 110)
(110 111)
(112 109)
(111 113)
(114 112)
(113 115)
(116 114)
(115 117)
(118 116)
(117 119)
(120 118)
(119 121)
(122 120)
(121 123)
(123 124)
(125 122)
(124 126)
(127 125)
(126 128)
(129 127)
(128 130)
(131 129)
(130 132)
(133 131)
(132 134)
(135 133)
(134 136)
(137 135)
(136 138)
(139 137)
(138 140)
(141 139)
(140 142)
(143 141)
(142 144)
(145 143)
(144 146)
(147 145)
(146 148)
(149 147)
(150 149)
(148 151)
(151 152)
(153 150)
(152 154)
(155 153)
(154 156)
(157 155)
(156 158)
(159 157)
(158 160)
(161 159)
(160 162)
(163 161)
(162 164)
(165 163)
(166 165)
(164 167)
(168 166)
(167 169)
(170 168)
(169 171)
(172 170)
(173 172)
(171 174)
(174 175)
(175 176)
(177 173)
(176 178)
(179 177)
(178 180)
(181 179)
(180 182)
(183 181)
(182 184)
(185 183)
(184 186)
(187 185)
(188 187)
(186 189)
(189 190)
(191 188)
(190 192)
(193 191)
(192 194)
(195 193)
(194 196)
(197 195)
(196 198)
(199 197)
(200 199)
(198 201)
(202 200)
(201 203)
(204 202)
(203 205)
(206 204)
(205 207)
(208 206)
(207 209)
(210 208)
(209 211)
(212 210)
(211 213)
(214 212)
(213 215)
(216 214)
(217 216)
(215 218)
(218 219)
(220 217)
(221 220)
(219 222)
(222 223)
(223 224)
(225 221)
(226 225)
(224 227)
(227 228)
(229 226)
(228 230)
(231 229)
(232 231)
(230 233)
(234 232)
(233 235)
(236 234)
(237 236)
(235 238)
(238 239)
(240 237)
(241 240)
(239 242)
(242 243)
(244 241)
(245 244)
(243 246)
(246 247)
(248 245)
(247 249)
(250 248)
(249 251)
(3 250)
(251 0)
)

// concaveStart mixedStart nonFeatureStart
0 0 0
// internalStart flatStart openStart multipleStart
252 252 252 252
// normals

418
(
(0.999689 0.0249332 -0)
(0 0 -1)
(0.999689 0.0249332 0)
(0 0 1)
(0.997204 0.0747271 0)
(0 0 1)
(0.997204 0.0747271 -0)
(0 0 -1)
(0.992239 0.124345 0)
(0.984808 0.173649 0)
(0 0 1)
(0.992239 0.124345 -0)
(0.984808 0.173649 0)
(0 0 -1)
(0.974929 0.222517 0)
(0 0 1)
(0.974929 0.222517 -0)
(0 0 -1)
(0.962624 0.270843 0)
(0 0 1)
(0.947927 0.318487 0)
(0.962624 0.270843 -0)
(0 0 -1)
(0.930874 0.365341 0)
(0 0 1)
(0.947927 0.318487 0)
(0.930874 0.365341 0)
(0 0 -1)
(0.911506 0.411288 0)
(0.911506 0.411288 -0)
(0.889872 0.456209 0)
(0 0 1)
(0.889872 0.456209 -0)
(0 0 -1)
(0.866024 0.500002 -0)
(0 0 -1)
(0.866024 0.500002 0)
(0 0 1)
(0.840027 0.542545 -0)
(0.840027 0.542545 0)
(0.811937 0.583745 -0)
(0 0 -1)
(0.811937 0.583745 0)
(0 0 1)
(0.781832 0.623489 -0)
(0.781832 0.623489 0)
(0.749782 0.661685 0)
(0 0 1)
(0.749782 0.661685 -0)
(0 0 -1)
(0.715866 0.698237 0)
(0.715866 0.698237 -0)
(0.680173 0.733052 0)
(0 0 1)
(0.680173 0.733052 -0)
(-0 -0 -1)
(0.642789 0.766043 0)
(0.603802 0.797134 0)
(0 0 1)
(0.642789 0.766043 -0)
(0.563321 0.826238 0)
(0 0 1)
(0.603802 0.797134 0)
(-0 -0 -1)
(0.563321 0.826238 0)
(-0 -0 -1)
(0.521435 0.853291 0)
(0.478253 0.878222 0)
(0 0 1)
(0.521435 0.853291 -0)
(0.478253 0.878222 0)
(-0 -0 -1)
(0.433884 0.900969 0)
(0 0 1)
(0.433884 0.900969 -0)
(-0 -0 -1)
(0.388436 0.921476 0)
(0 0 1)
(0.388436 0.921476 -0)
(-0 -0 -1)
(0.34202 0.939693 0)
(0.34202 0.939693 -0)
(0.294753 0.955573 0)
(0 0 1)
(0.246761 0.969076 0)
(0.294753 0.955573 -0)
(-0 -0 -1)
(0.198145 0.980173 0)
(0 0 1)
(0.246761 0.969076 0)
(0.198145 0.980173 0)
(-0 -0 -1)
(0.149041 0.988831 0)
(0 0 1)
(0.149041 0.988831 -0)
(-0 -0 -1)
(0.0995677 0.995031 0)
(0 0 1)
(0.0995677 0.995031 -0)
(-0 -0 -1)
(0.0498462 0.998757 0)
(0.0498462 0.998757 -0)
(0 1 0)
(0 0 1)
(0 1 -0)
(0 -0 -1)
(-0.0498462 0.998757 0)
(0 0 1)
(-0.0498462 0.998757 0)
(0 -0 -1)
(-0.0995677 0.995031 0)
(-0.149041 0.988831 0)
(0 0 1)
(-0.0995677 0.995031 0)
(-0.149041 0.988831 0)
(0 -0 -1)
(-0.198145 0.980173 0)
(-0.198145 0.980173 0)
(-0.246761 0.969076 0)
(0 0 1)
(-0.246761 0.969076 0)
(0 -0 -1)
(-0.294753 0.955573 0)
(0 0 1)
(-0.294753 0.955573 0)
(0 -0 -1)
(-0.34202 0.939693 0)
(-0.34202 0.939693 0)
(-0.388436 0.921476 0)
(0 -0 -1)
(-0.388436 0.921476 0)
(0 0 1)
(-0.433884 0.900969 0)
(0 -0 -1)
(-0.433884 0.900969 0)
(0 0 1)
(-0.478253 0.878222 0)
(0 -0 -1)
(-0.478253 0.878222 0)
(0 0 1)
(-0.521435 0.853291 0)
(0 -0 -1)
(-0.521435 0.853291 0)
(0 0 1)
(-0.563321 0.826238 0)
(-0.563321 0.826238 0)
(-0.603802 0.797134 0)
(0 -0 -1)
(-0.603802 0.797134 0)
(0 0 1)
(-0.642789 0.766043 0)
(0 -0 -1)
(-0.642789 0.766043 0)
(0 0 1)
(-0.680173 0.733052 0)
(-0.680173 0.733052 0)
(-0.715866 0.698237 0)
(0 0 1)
(-0.715866 0.698237 0)
(0 -0 -1)
(-0.749782 0.661685 0)
(0 0 1)
(-0.749782 0.661685 0)
(0 -0 -1)
(-0.781832 0.623489 0)
(-0.781832 0.623489 0)
(-0.811937 0.583745 0)
(0 0 1)
(-0.811937 0.583745 0)
(0 -0 -1)
(-0.840027 0.542545 0)
(0 0 1)
(-0.840027 0.542545 0)
(0 -0 -1)
(-0.866024 0.500002 0)
(-0.866024 0.500002 0)
(-0.889872 0.456209 0)
(0 0 1)
(-0.911506 0.411288 0)
(0 0 1)
(-0.889872 0.456209 0)
(0 -0 -1)
(-0.911506 0.411288 0)
(0 -0 -1)
(-0.930874 0.365341 0)
(-0.930874 0.365341 0)
(-0.947927 0.318487 0)
(0 0 1)
(-0.947927 0.318487 0)
(0 -0 -1)
(-0.962624 0.270843 0)
(0 0 1)
(-0.962624 0.270843 0)
(0 -0 -1)
(-0.974929 0.222517 0)
(0 0 1)
(-0.974929 0.222517 0)
(0 -0 -1)
(-0.984808 0.173649 0)
(-0.984808 0.173649 0)
(-0.992239 0.124345 0)
(0 0 1)
(-0.992239 0.124345 0)
(0 -0 -1)
(-0.997204 0.0747271 0)
(0 -0 -1)
(-0.997204 0.0747271 0)
(0 0 1)
(-0.999689 0.0249332 0)
(0 -0 -1)
(-0.999689 0.0249332 0)
(0 0 1)
(-0.999689 -0.0249332 0)
(0 0 -1)
(-0.999689 -0.0249332 0)
(0 0 1)
(-0.997204 -0.0747271 0)
(0 0 -1)
(-0.997204 -0.0747271 0)
(0 0 1)
(-0.992239 -0.124345 0)
(-0.992239 -0.124345 0)
(-0.984808 -0.173649 0)
(0 0 -1)
(-0.984808 -0.173649 0)
(0 0 1)
(-0.974929 -0.222517 0)
(-0.974929 -0.222517 0)
(-0.962624 -0.270843 0)
(0 0 -1)
(-0.962624 -0.270843 0)
(0 0 1)
(-0.947927 -0.318487 0)
(-0.947927 -0.318487 0)
(-0.930874 -0.365341 0)
(0 0 -1)
(-0.930874 -0.365341 0)
(0 0 1)
(-0.911506 -0.411288 0)
(0 0 -1)
(-0.911506 -0.411288 0)
(0 0 1)
(-0.889872 -0.456209 0)
(-0.889872 -0.456209 0)
(-0.866024 -0.500002 0)
(0 0 -1)
(-0.866024 -0.500002 0)
(0 0 1)
(-0.840027 -0.542545 -0)
(0 0 1)
(-0.840027 -0.542545 0)
(0 0 -1)
(-0.811937 -0.583745 0)
(-0.811937 -0.583745 0)
(-0.781832 -0.623489 0)
(0 0 -1)
(-0.781832 -0.623489 0)
(0 0 1)
(-0.749782 -0.661685 0)
(-0.749782 -0.661685 0)
(-0.715866 -0.698237 0)
(0 0 -1)
(-0.715866 -0.698237 0)
(0 0 1)
(-0.680173 -0.733052 0)
(0 0 -1)
(-0.680173 -0.733052 0)
(0 0 1)
(-0.642789 -0.766043 0)
(-0.642789 -0.766043 0)
(-0.603802 -0.797134 0)
(0 0 -1)
(-0.603802 -0.797134 0)
(0 0 1)
(-0.563321 -0.826238 -0)
(-0.563321 -0.826238 0)
(-0.521435 -0.853291 0)
(0 0 1)
(-0.521435 -0.853291 0)
(0 0 -1)
(-0.478253 -0.878222 0)
(-0.478253 -0.878222 0)
(-0.433884 -0.900969 0)
(0 0 1)
(-0.388436 -0.921476 -0)
(0 0 1)
(-0.433884 -0.900969 0)
(0 0 -1)
(-0.388436 -0.921476 0)
(0 0 -1)
(-0.34202 -0.939693 0)
(-0.34202 -0.939693 0)
(-0.294753 -0.955573 0)
(0 0 -1)
(-0.294753 -0.955573 0)
(0 0 1)
(-0.246761 -0.969076 0)
(0 0 -1)
(-0.246761 -0.969076 0)
(0 0 1)
(-0.198145 -0.980173 0)
(-0.198145 -0.980173 0)
(-0.149041 -0.988831 0)
(0 0 -1)
(-0.149041 -0.988831 0)
(0 0 1)
(-0.0995677 -0.995031 0)
(0 0 -1)
(-0.0995677 -0.995031 0)
(0 0 1)
(-0.0498462 -0.998757 -0)
(-0.0498462 -0.998757 0)
(0 -1 0)
(0 0 -1)
(0 -1 0)
(0 0 1)
(0.0498462 -0.998757 0)
(0.0498462 -0.998757 0)
(0.0995677 -0.995031 0)
(0 0 -1)
(0.0995677 -0.995031 0)
(0 0 1)
(0.149041 -0.988831 0)
(0 0 -1)
(0.149041 -0.988831 0)
(0 0 1)
(0.198145 -0.980173 0)
(0.198145 -0.980173 0)
(0.246761 -0.969076 0)
(0 0 1)
(0.246761 -0.969076 0)
(0 0 -1)
(0.294753 -0.955573 0)
(0.294753 -0.955573 0)
(0.34202 -0.939693 0)
(0 0 1)
(0.34202 -0.939693 0)
(0 0 -1)
(0.388436 -0.921476 0)
(0 0 1)
(0.388436 -0.921476 0)
(0 0 -1)
(0.433884 -0.900969 0)
(0 0 1)
(0.433884 -0.900969 0)
(0 0 -1)
(0.478253 -0.878222 0)
(0 0 1)
(0.478253 -0.878222 0)
(0 0 -1)
(0.521435 -0.853291 0)
(0 0 1)
(0.521435 -0.853291 0)
(0 0 -1)
(0.563321 -0.826238 0)
(0.563321 -0.826238 0)
(0.603802 -0.797134 0)
(0 0 1)
(0.642789 -0.766043 0)
(0 0 1)
(0.603802 -0.797134 0)
(0 0 -1)
(0.642789 -0.766043 0)
(0 0 -1)
(0.680173 -0.733052 0)
(0.715866 -0.698237 0)
(0 0 1)
(0.680173 -0.733052 0)
(0.715866 -0.698237 0)
(0 0 -1)
(0.749782 -0.661685 0)
(0 0 -1)
(0.749782 -0.661685 0)
(0 0 1)
(0.781832 -0.623489 0)
(0 0 1)
(0.781832 -0.623489 0)
(0 0 -1)
(0.811937 -0.583745 0)
(0 0 -1)
(0.811937 -0.583745 0)
(0 0 1)
(0.840027 -0.542545 0)
(0.840027 -0.542545 0)
(0.866024 -0.500002 0)
(0 0 1)
(0.866024 -0.500002 0)
(0 0 -1)
(0.889872 -0.456209 0)
(0.889872 -0.456209 0)
(0.911506 -0.411288 0)
(0 0 1)
(0.930874 -0.365341 0)
(0.911506 -0.411288 0)
(0 0 -1)
(0.930874 -0.365341 0)
(0.947927 -0.318487 0)
(0 0 1)
(0.962624 -0.270843 0)
(0.947927 -0.318487 0)
(0 0 -1)
(0.962624 -0.270843 0)
(0.974929 -0.222517 0)
(0 0 1)
(0.984808 -0.173649 0)
(0 0 1)
(0.974929 -0.222517 0)
(0 0 -1)
(0.984808 -0.173649 0)
(0 0 -1)
(0.992239 -0.124345 0)
(0.992239 -0.124345 0)
(0.997204 -0.0747271 0)
(0 0 1)
(0.997204 -0.0747271 0)
(0 0 -1)
(0.999689 -0.0249332 0)
(0.999689 -0.0249332 0)
)

// normal volume types

418
(
0
0
0
0
0
0
0
0
0
0
0
0
0
0
0
0
0
0
0
0
0
0
0
0
0
0
0
0
0
0
0
0
0
0
0
0
0
0
0
0
0
0
0
0
0
0
0
0
0
0
0
0
0
0
0
0
0
0
0
0
0
0
0
0
0
0
0
0
0
0
0
0
0
0
0
0
0
0
0
0
0
0
0
0
0
0
0
0
0
0
0
0
0
0
0
0
0
0
0
0
0
0
0
0
0
0
0
0
0
0
0
0
0
0
0
0
0
0
0
0
0
0
0
0
0
0
0
0
0
0
0
0
0
0
0
0
0
0
0
0
0
0
0
0
0
0
0
0
0
0
0
0
0
0
0
0
0
0
0
0
0
0
0
0
0
0
0
0
0
0
0
0
0
0
0
0
0
0
0
0
0
0
0
0
0
0
0
0
0
0
0
0
0
0
0
0
0
0
0
0
0
0
0
0
0
0
0
0
0
0
0
0
0
0
0
0
0
0
0
0
0
0
0
0
0
0
0
0
0
0
0
0
0
0
0
0
0
0
0
0
0
0
0
0
0
0
0
0
0
0
0
0
0
0
0
0
0
0
0
0
0
0
0
0
0
0
0
0
0
0
0
0
0
0
0
0
0
0
0
0
0
0
0
0
0
0
0
0
0
0
0
0
0
0
0
0
0
0
0
0
0
0
0
0
0
0
0
0
0
0
0
0
0
0
0
0
0
0
0
0
0
0
0
0
0
0
0
0
0
0
0
0
0
0
0
0
0
0
0
0
0
0
0
0
0
0
0
0
0
0
0
0
0
0
0
0
0
0
0
0
0
0
0
0
0
0
0
0
0
0
0
0
0
0
0
0
0
0
0
0
0
0
0
0
0
0
0
0
0
0
0
0
0
0
0
0
0
0
0
0
0
0
0
0
0
0
0
0
0
0
0
0
0
0
0
0
0
0
)

// normalDirections

252
(
2(1 -1)
2(1 -1)
2(1 -1)
2(1 -1)
2(1 -1)
2(1 -1)
2(1 -1)
2(1 -1)
2(1 -1)
2(1 -1)
2(1 -1)
2(1 -1)
2(1 -1)
2(1 -1)
2(1 -1)
2(1 -1)
2(1 -1)
2(1 -1)
2(1 -1)
2(1 -1)
2(1 -1)
2(1 -1)
2(1 -1)
2(1 -1)
2(1 -1)
2(1 -1)
2(1 -1)
2(1 -1)
2(1 -1)
2(1 -1)
2(1 -1)
2(1 -1)
2(1 -1)
2(1 -1)
2(1 -1)
2(1 -1)
2(1 -1)
2(1 -1)
2(1 -1)
2(1 -1)
2(1 -1)
2(1 -1)
2(1 -1)
2(1 -1)
2(1 -1)
2(1 -1)
2(1 -1)
2(1 -1)
2(1 -1)
2(1 -1)
2(1 -1)
2(1 -1)
2(1 -1)
2(1 -1)
2(1 -1)
2(1 -1)
2(1 -1)
2(1 -1)
2(1 -1)
2(1 -1)
2(1 -1)
2(1 -1)
2(1 -1)
2(1 -1)
2(1 -1)
2(1 -1)
2(1 -1)
2(1 -1)
2(1 -1)
2(1 -1)
2(1 -1)
2(1 -1)
2(1 -1)
2(1 -1)
2(1 -1)
2(1 -1)
2(1 -1)
2(1 -1)
2(1 -1)
2(1 -1)
2(1 -1)
2(1 -1)
2(1 -1)
2(1 -1)
2(1 -1)
2(1 -1)
2(1 -1)
2(1 -1)
2(1 -1)
2(1 -1)
2(1 -1)
2(1 -1)
2(1 -1)
2(1 -1)
2(1 -1)
2(1 -1)
2(1 -1)
2(1 -1)
2(1 -1)
2(1 -1)
2(1 -1)
2(1 -1)
2(1 -1)
2(1 -1)
2(1 -1)
2(1 -1)
2(1 -1)
2(1 -1)
2(1 -1)
2(1 -1)
2(1 -1)
2(1 -1)
2(1 -1)
2(1 -1)
2(1 -1)
2(1 -1)
2(1 -1)
2(1 -1)
2(1 -1)
2(1 -1)
2(1 -1)
2(1 -1)
2(1 -1)
2(1 -1)
2(1 -1)
2(1 -1)
2(1 -1)
2(1 -1)
2(1 -1)
2(1 -1)
2(1 -1)
2(1 -1)
2(1 -1)
2(1 -1)
2(1 -1)
2(1 -1)
2(1 -1)
2(1 -1)
2(1 -1)
2(1 -1)
2(1 -1)
2(1 -1)
2(1 -1)
2(1 -1)
2(1 -1)
2(1 -1)
2(1 -1)
2(1 -1)
2(1 -1)
2(1 -1)
2(1 -1)
2(1 -1)
2(1 -1)
2(1 -1)
2(1 -1)
2(1 -1)
2(1 -1)
2(1 -1)
2(1 -1)
2(1 -1)
2(1 -1)
2(1 -1)
2(1 -1)
2(1 -1)
2(1 -1)
2(1 -1)
2(1 -1)
2(1 -1)
2(1 -1)
2(1 -1)
2(1 -1)
2(1 -1)
2(1 -1)
2(1 -1)
2(1 -1)
2(1 -1)
2(1 -1)
2(1 -1)
2(1 -1)
2(1 -1)
2(1 -1)
2(1 -1)
2(1 -1)
2(1 -1)
2(1 -1)
2(1 -1)
2(1 -1)
2(1 -1)
2(1 -1)
2(1 -1)
2(1 -1)
2(1 -1)
2(1 -1)
2(1 -1)
2(1 -1)
2(1 -1)
2(1 -1)
2(1 -1)
2(1 -1)
2(1 -1)
2(1 -1)
2(1 -1)
2(1 -1)
2(1 -1)
2(1 -1)
2(1 -1)
2(1 -1)
2(1 -1)
2(1 -1)
2(1 -1)
2(1 -1)
2(1 -1)
2(1 -1)
2(1 -1)
2(1 -1)
2(1 -1)
2(1 -1)
2(1 -1)
2(1 -1)
2(1 -1)
2(1 -1)
2(1 -1)
2(1 -1)
2(1 -1)
2(1 -1)
2(1 -1)
2(1 -1)
2(1 -1)
2(1 -1)
2(1 -1)
2(1 -1)
2(1 -1)
2(1 -1)
2(1 -1)
2(1 -1)
2(1 -1)
2(1 -1)
2(1 -1)
2(1 -1)
2(1 -1)
2(1 -1)
2(1 -1)
2(1 -1)
2(1 -1)
2(1 -1)
2(1 -1)
2(1 -1)
2(1 -1)
2(1 -1)
2(1 -1)
2(1 -1)
2(1 -1)
)

// edgeNormals

252
(
2(0 1)
2(2 3)
2(4 5)
2(6 7)
2(8 5)
2(9 10)
2(11 7)
2(12 13)
2(14 15)
2(16 17)
2(18 19)
2(20 19)
2(21 22)
2(23 24)
2(25 22)
2(26 27)
2(28 24)
2(29 27)
2(30 31)
2(32 33)
2(34 35)
2(36 37)
2(38 35)
2(39 37)
2(40 41)
2(42 43)
2(44 41)
2(45 43)
2(46 47)
2(48 49)
2(50 47)
2(51 49)
2(52 53)
2(54 55)
2(56 53)
2(57 58)
2(59 55)
2(60 61)
2(62 63)
2(64 65)
2(66 61)
2(67 68)
2(69 65)
2(70 71)
2(72 73)
2(74 75)
2(76 77)
2(78 79)
2(80 77)
2(81 79)
2(82 83)
2(84 83)
2(85 86)
2(87 88)
2(89 86)
2(90 91)
2(92 93)
2(94 95)
2(96 97)
2(98 99)
2(100 97)
2(101 99)
2(102 103)
2(104 105)
2(106 107)
2(108 109)
2(110 107)
2(111 112)
2(113 109)
2(114 115)
2(116 115)
2(117 112)
2(118 119)
2(120 121)
2(122 123)
2(124 125)
2(126 125)
2(127 123)
2(128 129)
2(130 131)
2(132 133)
2(134 135)
2(136 137)
2(138 139)
2(140 141)
2(142 143)
2(144 141)
2(145 143)
2(146 147)
2(148 149)
2(150 151)
2(152 153)
2(154 151)
2(155 153)
2(156 157)
2(158 159)
2(160 161)
2(162 163)
2(164 161)
2(165 163)
2(166 167)
2(168 169)
2(170 171)
2(172 173)
2(174 171)
2(175 173)
2(176 177)
2(178 179)
2(180 181)
2(182 183)
2(184 179)
2(185 183)
2(186 187)
2(188 189)
2(190 191)
2(192 193)
2(194 195)
2(196 197)
2(198 195)
2(199 197)
2(200 201)
2(202 203)
2(204 205)
2(206 207)
2(208 209)
2(210 211)
2(212 213)
2(214 215)
2(216 217)
2(218 219)
2(220 217)
2(221 219)
2(222 223)
2(224 225)
2(226 223)
2(227 225)
2(228 229)
2(230 231)
2(232 229)
2(233 231)
2(234 235)
2(236 237)
2(238 239)
2(240 241)
2(242 239)
2(243 241)
2(244 245)
2(246 247)
2(248 249)
2(250 251)
2(252 251)
2(253 249)
2(254 255)
2(256 257)
2(258 255)
2(259 257)
2(260 261)
2(262 263)
2(264 265)
2(266 267)
2(268 265)
2(269 267)
2(270 271)
2(272 273)
2(274 273)
2(275 271)
2(276 277)
2(278 279)
2(280 277)
2(281 279)
2(282 283)
2(284 285)
2(286 287)
2(288 289)
2(290 289)
2(291 285)
2(292 293)
2(294 295)
2(296 297)
2(298 299)
2(300 297)
2(301 299)
2(302 303)
2(304 305)
2(306 307)
2(308 309)
2(310 309)
2(311 307)
2(312 313)
2(314 315)
2(316 313)
2(317 315)
2(318 319)
2(320 321)
2(322 323)
2(324 325)
2(326 323)
2(327 325)
2(328 329)
2(330 331)
2(332 329)
2(333 331)
2(334 335)
2(336 337)
2(338 339)
2(340 341)
2(342 343)
2(344 345)
2(346 347)
2(348 349)
2(350 351)
2(352 353)
2(354 351)
2(355 353)
2(356 357)
2(358 359)
2(360 361)
2(362 363)
2(364 359)
2(365 366)
2(367 363)
2(368 369)
2(370 371)
2(372 373)
2(374 375)
2(376 377)
2(378 379)
2(380 381)
2(382 379)
2(383 381)
2(384 385)
2(386 387)
2(388 385)
2(389 387)
2(390 391)
2(392 391)
2(393 394)
2(395 394)
2(396 397)
2(398 397)
2(399 400)
2(401 400)
2(402 403)
2(404 405)
2(406 407)
2(408 409)
2(410 405)
2(411 409)
2(412 413)
2(414 415)
2(416 413)
2(417 415)
)

// featurePointNormals
0()
// featurePointEdges
0()
// regionEdges
0()


// ************************************************************************* //
