/*--------------------------------*- C++ -*----------------------------------*\
| =========                 |                                                 |
| \\      /  F ield         | OpenFOAM: The Open Source CFD Toolbox           |
|  \\    /   O peration     | Version:  2312                                  |
|   \\  /    A nd           | Website:  www.openfoam.com                      |
|    \\/     M anipulation  |                                                 |
\*---------------------------------------------------------------------------*/
FoamFile
{
    version     2.0;
    format      ascii;
    arch        "LSB;label=32;scalar=64";
    class       extendedFeatureEdgeMesh;
    location    "constant/extendedFeatureEdgeMesh";
    object      fullheatexchg.extendedFeatureEdgeMesh;
}
// * * * * * * * * * * * * * * * * * * * * * * * * * * * * * * * * * * * * * //

// points

3644
(
(34.8261 -250 3.48488)
(34.306 -250 6.93511)
(34.6091 -250 -5.21648)
(33.9177 -250 -8.63651)
(-34.306 -250 6.93511)
(-34.8261 -250 3.48488)
(-33.9177 -250 -8.63651)
(-34.6091 -250 -5.21648)
(46.5539 -311.857 1.49042)
(46.4789 -311.9 1.98146)
(45.596 -312.41 4.78254)
(45.1458 -312.67 5.6332)
(44.0373 -313.31 7.15867)
(43.7207 -313.493 7.49781)
(42.689 -314.089 8.40026)
(42.3205 -314.301 8.66025)
(41.1543 -314.975 9.30874)
(39.0672 -316.18 9.92239)
(36.9135 -317.423 9.92239)
(36.4865 -317.67 9.84808)
(35.6448 -318.155 9.62624)
(34.8264 -318.628 9.30874)
(33.6603 -319.301 8.66025)
(33.2918 -319.514 8.40026)
(32.5908 -319.919 7.81832)
(31.642 -320.467 6.80173)
(30.8349 -320.932 5.6332)
(30.3848 -321.192 4.78254)
(30.0102 -321.409 3.88435)
(29.7149 -321.579 2.94755)
(29.5018 -321.702 1.98146)
(29.3732 -321.776 0.995678)
(29.3301 -321.801 0)
(29.3732 -321.776 -0.995678)
(29.7149 -321.579 -2.94755)
(30.3848 -321.192 -4.78254)
(30.8349 -320.932 -5.6332)
(31.3562 -320.632 -6.42788)
(31.9435 -320.292 -7.15867)
(32.5908 -319.919 -7.81832)
(33.2918 -319.514 -8.40026)
(34.0395 -319.082 -8.89872)
(34.4285 -318.858 -9.11506)
(35.2322 -318.394 -9.47927)
(35.6448 -318.155 -9.62624)
(36.9135 -317.423 -9.92239)
(38.6376 -316.428 -9.97204)
(39.9175 -315.689 -9.74928)
(41.5522 -314.745 -9.11506)
(41.9413 -314.52 -8.89872)
(43.0457 -313.883 -8.11938)
(44.8937 -312.816 -6.03804)
(45.3801 -312.535 -5.21435)
(45.793 -312.296 -4.33884)
(46.5539 -311.857 -1.49042)
(-17.5606 -250 -21.5343)
(-18.1966 -250 -16.4592)
(-7.32684 -250 -23.8701)
(-17.5606 -250 -14.8388)
(-11.9362 -250 -11.2061)
(4.95516 -250 -23.435)
(7.69107 -250 -24.9249)
(11.8164 -250 -24.822)
(3.00911 -250 -15.7924)
(12.466 -250 -24.5671)
(-5.26549 -250 -14.8388)
(13.087 -250 -24.2487)
(-9.18364 -250 -11.551)
(-8.21957 -250 -11.9574)
(-6.52539 -250 -13.1755)
(-18.1021 -250 16.1232)
(16.3705 -250 -19.9138)
(8.71655 -250 -11.2409)
(9.06385 -250 -11.2061)
(-17.9909 -250 20.5807)
(16.5783 -250 -18.5355)
(-6.28168 -250 13.4253)
(16.5088 -250 -17.1432)
(16.3705 -250 -16.4592)
(15.3706 -250 -14.2433)
(16.1648 -250 -15.7924)
(6.08696 -250 12.1244)
(3.13662 -250 15.4675)
(8.37142 -250 11.2929)
(9.06385 -250 11.2061)
(9.41244 -250 11.1887)
(-4.6295 -250 19.9138)
(11.8164 -250 11.551)
(13.3848 -250 12.3064)
(13.6732 -250 12.503)
(14.7183 -250 13.4253)
(16.276 -250 16.1232)
(8.71655 -250 25.1322)
(9.76147 -250 25.1844)
(10.4574 -250 25.1322)
(10.8025 -250 25.0802)
(11.8164 -250 24.822)
(12.1443 -250 24.7026)
(12.7804 -250 24.4156)
(13.6732 -250 23.8701)
(16.4482 -250 16.7995)
(14.7183 -250 22.9477)
(16.5088 -250 17.1432)
(14.9493 -250 22.686)
(16.5522 -250 18.8835)
(16.3705 -250 19.9138)
(27.8996 0 -21.1332)
(25.6568 0 -23.806)
(-9.97204 63.9276 -42.9677)
(-9.84808 63.433 -43.8243)
(-9.62624 62.9471 -44.6661)
(-8.89872 62.0202 -46.2714)
(-8.40026 61.5885 -47.0191)
(-7.81832 61.1838 -47.7201)
(-6.80173 60.636 -48.6689)
(-6.03804 60.3156 -49.2239)
(6.42788 60.471 -48.9546)
(7.15867 60.8101 -48.3674)
(8.40026 61.5885 -47.0191)
(8.89872 62.0202 -46.2714)
(9.47927 62.7088 -45.0787)
(9.92239 63.6795 -43.3974)
(9.99689 64.1766 -42.5364)
(-28.913 0 0)
(-28.8783 0 -0.696975)
(-28.8349 0 -1.0433)
(-28.6021 0 -2.06329)
(-28.3634 0 -2.71904)
(6.08696 0 24.2487)
(10.1101 0 25.167)
(13.3848 0 24.0667)
(-14.9912 0 1.0433)
(-14.9217 0 0.348921)
(-15.1295 0 -1.7273)
(-15.3352 0 -2.39414)
(6.39348 0 11.9574)
(-21.3899 0 -6.98043)
(-22.4362 0 -6.98043)
(-18.1021 0 -16.1232)
(8.02931 0 11.362)
(16.4482 0 19.5736)
(-7.32684 0 -12.503)
(10.8025 0 11.2929)
(10.4574 0 11.2409)
(13.1217 0 -0.696975)
(13.3979 0 -2.06329)
(13.5091 0 -2.39414)
(13.9394 0 -3.34778)
(-12.2834 0 -25.1322)
(-5.10626 0 -15.1493)
(14.7246 0 -4.49951)
(15.4552 0 -5.24847)
(17.5296 0 -6.51612)
(18.1911 0 -6.73837)
(19.2166 0 -6.94567)
(20.6101 0 -6.98043)
(21.6446 0 -6.82449)
(27.0522 0 -0.696975)
(26.776 0 -2.06329)
(26.5373 0 -2.71904)
(26.2345 0 -3.34778)
(25.6669 0 -4.22663)
(24.9746 0 -5.01107)
(24.4514 0 -5.47282)
(23.2804 0 -6.2291)
(22.3164 0 -6.63549)
(16.4482 0 -19.5736)
(34.6091 -250 5.21648)
(34.306 -250 -6.93511)
(-34.6091 -250 5.21648)
(-34.306 -250 -6.93511)
(46.6399 -311.807 0.498459)
(46.6506 -311.801 0)
(46.6076 -311.826 0.995678)
(46.3828 -311.956 2.46757)
(46.2659 -312.023 2.94755)
(46.1284 -312.103 3.4202)
(45.9706 -312.194 3.88435)
(45.793 -312.296 4.33884)
(45.3801 -312.535 5.21435)
(44.8937 -312.816 6.03804)
(44.6245 -312.971 6.42788)
(44.3388 -313.136 6.80173)
(43.39 -313.684 7.81832)
(43.0457 -313.883 8.11938)
(41.9413 -314.52 8.89872)
(41.5522 -314.745 9.11506)
(38.6376 -316.428 9.97204)
(38.2063 -316.677 9.99689)
(37.7745 -316.926 9.99689)
(37.3432 -317.175 9.97204)
(36.0633 -317.914 9.74928)
(34.4285 -318.858 9.11506)
(34.0395 -319.082 8.89872)
(32.935 -319.72 8.11938)
(31.3562 -320.632 6.42788)
(31.087 -320.787 6.03804)
(30.6007 -321.068 5.21435)
(30.1878 -321.306 4.33884)
(29.8524 -321.5 3.4202)
(29.5979 -321.647 2.46757)
(29.3409 -321.795 0.498459)
(29.3409 -321.795 -0.498459)
(29.8524 -321.5 -3.4202)
(30.0102 -321.409 -3.88435)
(30.1878 -321.306 -4.33884)
(30.6007 -321.068 -5.21435)
(31.087 -320.787 -6.03804)
(32.26 -320.11 -7.49781)
(32.935 -319.72 -8.11938)
(33.6603 -319.301 -8.66025)
(34.8264 -318.628 -9.30874)
(36.0633 -317.914 -9.74928)
(36.4865 -317.67 -9.84808)
(39.0672 -316.18 -9.92239)
(39.4942 -315.933 -9.84808)
(40.3359 -315.447 -9.62624)
(40.7486 -315.209 -9.47927)
(41.1543 -314.975 -9.30874)
(42.3205 -314.301 -8.66025)
(42.689 -314.089 -8.40026)
(43.39 -313.684 -7.81832)
(43.7207 -313.493 -7.49781)
(44.0373 -313.31 -7.15867)
(44.3388 -313.136 -6.80173)
(44.6245 -312.971 -6.42788)
(45.1458 -312.67 -5.6332)
(45.596 -312.41 -4.78254)
(45.9706 -312.194 -3.88435)
(46.1284 -312.103 -3.4202)
(46.2659 -312.023 -2.94755)
(46.3828 -311.956 -2.46757)
(46.4789 -311.9 -1.98146)
(46.6076 -311.826 -0.995678)
(46.6399 -311.807 -0.498459)
(31.3562 -320.632 6.42788)
(31.087 -320.787 6.03804)
(32.935 -319.72 8.11938)
(30.6007 -321.068 5.21435)
(34.0395 -319.082 8.89872)
(30.1878 -321.306 4.33884)
(34.4285 -318.858 9.11506)
(29.8524 -321.5 3.4202)
(29.5979 -321.647 2.46757)
(36.0633 -317.914 9.74928)
(29.3409 -321.795 0.498459)
(37.7745 -316.926 9.99689)
(37.3432 -317.175 9.97204)
(29.3409 -321.795 -0.498459)
(38.6376 -316.428 9.97204)
(38.2063 -316.677 9.99689)
(29.8524 -321.5 -3.4202)
(30.0102 -321.409 -3.88435)
(30.1878 -321.306 -4.33884)
(41.9413 -314.52 8.89872)
(41.5522 -314.745 9.11506)
(30.6007 -321.068 -5.21435)
(31.087 -320.787 -6.03804)
(43.39 -313.684 7.81832)
(43.0457 -313.883 8.11938)
(44.3388 -313.136 6.80173)
(32.26 -320.11 -7.49781)
(44.8937 -312.816 6.03804)
(44.6245 -312.971 6.42788)
(32.935 -319.72 -8.11938)
(45.3801 -312.535 5.21435)
(45.793 -312.296 4.33884)
(46.1284 -312.103 3.4202)
(45.9706 -312.194 3.88435)
(46.2659 -312.023 2.94755)
(33.6603 -319.301 -8.66025)
(34.8264 -318.628 -9.30874)
(46.3828 -311.956 2.46757)
(46.6076 -311.826 0.995678)
(46.6506 -311.801 0)
(46.6399 -311.807 0.498459)
(36.0633 -317.914 -9.74928)
(36.4865 -317.67 -9.84808)
(39.0672 -316.18 -9.92239)
(46.6076 -311.826 -0.995678)
(46.6399 -311.807 -0.498459)
(46.4789 -311.9 -1.98146)
(46.3828 -311.956 -2.46757)
(46.2659 -312.023 -2.94755)
(40.7486 -315.209 -9.47927)
(41.1543 -314.975 -9.30874)
(40.3359 -315.447 -9.62624)
(39.4942 -315.933 -9.84808)
(45.9706 -312.194 -3.88435)
(46.1284 -312.103 -3.4202)
(45.596 -312.41 -4.78254)
(42.3205 -314.301 -8.66025)
(42.689 -314.089 -8.40026)
(45.1458 -312.67 -5.6332)
(43.39 -313.684 -7.81832)
(44.6245 -312.971 -6.42788)
(43.7207 -313.493 -7.49781)
(44.3388 -313.136 -6.80173)
(44.0373 -313.31 -7.15867)
(-16.5444 -250 -22.9477)
(-16.3007 -250 -23.1976)
(-16.0448 -250 -23.435)
(-16.7754 -250 -22.686)
(-15.7775 -250 -23.6594)
(-16.993 -250 -22.4132)
(-15.4992 -250 -23.8701)
(-17.1967 -250 -22.1298)
(-15.2109 -250 -24.0667)
(-17.3861 -250 -21.8366)
(-14.913 -250 -24.2487)
(-14.6065 -250 -24.4156)
(-17.7198 -250 -21.2237)
(-14.2921 -250 -24.5671)
(-17.8634 -250 -20.9056)
(-13.9704 -250 -24.7026)
(-17.9909 -250 -20.5807)
(-13.6425 -250 -24.822)
(-18.1021 -250 -20.2498)
(-13.3089 -250 -24.9249)
(-18.1966 -250 -19.9138)
(-12.9707 -250 -25.011)
(-18.2742 -250 -19.5736)
(-12.6286 -250 -25.0802)
(-18.3349 -250 -19.2298)
(-12.2834 -250 -25.1322)
(-18.3783 -250 -18.8835)
(-11.9362 -250 -25.167)
(-18.4043 -250 -18.5355)
(-11.5876 -250 -25.1844)
(-18.413 -250 -18.1865)
(-11.2385 -250 -25.1844)
(-18.4043 -250 -17.8376)
(-10.8899 -250 -25.167)
(-18.3783 -250 -17.4896)
(-10.5426 -250 -25.1322)
(-18.3349 -250 -17.1432)
(-10.1975 -250 -25.0802)
(-18.2742 -250 -16.7995)
(-9.8554 -250 -25.011)
(-9.51716 -250 -24.9249)
(-18.1021 -250 -16.1232)
(-9.18364 -250 -24.822)
(-17.9909 -250 -15.7924)
(-8.85566 -250 -24.7026)
(-8.53403 -250 -24.5671)
(-8.21957 -250 -24.4156)
(-7.91304 -250 -24.2487)
(-34.306 -250 -6.93511)
(-7.61522 -250 -24.0667)
(-7.04861 -250 -23.6594)
(-6.78124 -250 -23.435)
(-17.8634 -250 -15.4675)
(-6.52539 -250 -23.1976)
(-17.7198 -250 -15.1493)
(-6.28168 -250 -22.9477)
(-17.3861 -250 -14.5365)
(-17.1967 -250 -14.2433)
(-16.993 -250 -13.9599)
(-16.7754 -250 -13.687)
(-16.5444 -250 -13.4253)
(-16.3007 -250 -13.1755)
(-16.0448 -250 -12.9381)
(-15.7775 -250 -12.7137)
(-15.4992 -250 -12.503)
(-34.6091 -250 5.21648)
(-15.2109 -250 -12.3064)
(-14.913 -250 -12.1244)
(-14.6065 -250 -11.9574)
(-14.2921 -250 -11.806)
(-13.9704 -250 -11.6704)
(-13.6425 -250 -11.551)
(-13.3089 -250 -11.4482)
(-12.9707 -250 -11.362)
(-12.6286 -250 -11.2929)
(-12.2834 -250 -11.2409)
(-11.5876 -250 -11.1887)
(-11.2385 -250 -11.1887)
(4.45559 -250 -22.9477)
(4.6993 -250 -23.1976)
(-6.05073 -250 -22.686)
(4.22465 -250 -22.686)
(5.22253 -250 -23.6594)
(4.00703 -250 -22.4132)
(-5.83312 -250 -22.4132)
(5.50075 -250 -23.8701)
(3.80328 -250 -22.1298)
(-5.62937 -250 -22.1298)
(5.78913 -250 -24.0667)
(3.61392 -250 -21.8366)
(-5.44001 -250 -21.8366)
(-5.26549 -250 -21.5343)
(6.08696 -250 -24.2487)
(3.4394 -250 -21.5343)
(6.39348 -250 -24.4156)
(-5.10626 -250 -21.2237)
(-4.96271 -250 -20.9056)
(3.28017 -250 -21.2237)
(6.70795 -250 -24.5671)
(3.13662 -250 -20.9056)
(7.02957 -250 -24.7026)
(3.00911 -250 -20.5807)
(-4.83519 -250 -20.5807)
(7.35755 -250 -24.822)
(-4.72403 -250 -20.2498)
(-4.6295 -250 -19.9138)
(2.89795 -250 -20.2498)
(2.80342 -250 -19.9138)
(8.02931 -250 -25.011)
(-4.55184 -250 -19.5736)
(-4.49123 -250 -19.2298)
(2.72575 -250 -19.5736)
(8.37142 -250 -25.0802)
(2.66514 -250 -19.2298)
(8.71655 -250 -25.1322)
(-4.44783 -250 -18.8835)
(2.62174 -250 -18.8835)
(9.06385 -250 -25.167)
(-4.42174 -250 -18.5355)
(2.59566 -250 -18.5355)
(9.41244 -250 -25.1844)
(2.58696 -250 -18.1865)
(-4.41304 -250 -18.1865)
(9.76147 -250 -25.1844)
(-4.42174 -250 -17.8376)
(2.59566 -250 -17.8376)
(10.1101 -250 -25.167)
(2.62174 -250 -17.4896)
(-4.44783 -250 -17.4896)
(10.4574 -250 -25.1322)
(2.66514 -250 -17.1432)
(-4.49123 -250 -17.1432)
(10.8025 -250 -25.0802)
(2.72575 -250 -16.7995)
(-4.55184 -250 -16.7995)
(-4.6295 -250 -16.4592)
(11.1446 -250 -25.011)
(2.80342 -250 -16.4592)
(11.4828 -250 -24.9249)
(-4.72403 -250 -16.1232)
(2.89795 -250 -16.1232)
(-4.83519 -250 -15.7924)
(-4.96271 -250 -15.4675)
(3.13662 -250 -15.4675)
(-5.10626 -250 -15.1493)
(3.28017 -250 -15.1493)
(12.7804 -250 -24.4156)
(-5.44001 -250 -14.5365)
(3.4394 -250 -14.8388)
(-9.51716 -250 -11.4482)
(-9.8554 -250 -11.362)
(-10.1975 -250 -11.2929)
(-10.5426 -250 -11.2409)
(-8.85566 -250 -11.6704)
(-10.8899 -250 -11.2061)
(-8.53403 -250 -11.806)
(13.3848 -250 -24.0667)
(-7.91304 -250 -12.1244)
(-7.61522 -250 -12.3064)
(13.6732 -250 -23.8701)
(-7.32684 -250 -12.503)
(-7.04861 -250 -12.7137)
(-6.78124 -250 -12.9381)
(13.9514 -250 -23.6594)
(-6.28168 -250 -13.4253)
(-6.05073 -250 -13.687)
(14.2188 -250 -23.435)
(-5.83312 -250 -13.9599)
(14.4746 -250 -23.1976)
(-5.62937 -250 -14.2433)
(14.7183 -250 -22.9477)
(14.9493 -250 -22.686)
(3.61392 -250 -14.5365)
(3.80328 -250 -14.2433)
(15.1669 -250 -22.4132)
(4.00703 -250 -13.9599)
(15.3706 -250 -22.1298)
(4.22465 -250 -13.687)
(4.45559 -250 -13.4253)
(4.6993 -250 -13.1755)
(15.56 -250 -21.8366)
(15.7345 -250 -21.5343)
(4.95516 -250 -12.9381)
(5.22253 -250 -12.7137)
(5.50075 -250 -12.503)
(5.78913 -250 -12.3064)
(6.08696 -250 -12.1244)
(-16.5444 -250 13.4253)
(-16.3007 -250 13.1755)
(-16.0448 -250 12.9381)
(-16.7754 -250 13.687)
(16.0373 -250 -20.9056)
(16.1648 -250 -20.5807)
(15.8937 -250 -21.2237)
(-15.7775 -250 12.7137)
(-16.993 -250 13.9599)
(-15.4992 -250 12.503)
(6.39348 -250 -11.9574)
(-17.1967 -250 14.2433)
(-15.2109 -250 12.3064)
(-17.3861 -250 14.5365)
(-14.913 -250 12.1244)
(-17.5606 -250 14.8388)
(-14.6065 -250 11.9574)
(-17.7198 -250 15.1493)
(6.70795 -250 -11.806)
(7.02957 -250 -11.6704)
(-14.2921 -250 11.806)
(-17.8634 -250 15.4675)
(-13.9704 -250 11.6704)
(-17.9909 -250 15.7924)
(-13.6425 -250 11.551)
(-13.3089 -250 11.4482)
(-18.1966 -250 16.4592)
(-12.9707 -250 11.362)
(7.35755 -250 -11.551)
(7.69107 -250 -11.4482)
(-18.2742 -250 16.7995)
(-12.6286 -250 11.2929)
(-18.3349 -250 17.1432)
(-12.2834 -250 11.2409)
(-18.3783 -250 17.4896)
(-11.9362 -250 11.2061)
(16.276 -250 -20.2498)
(-18.4043 -250 17.8376)
(8.02931 -250 -11.362)
(-11.5876 -250 11.1887)
(-18.413 -250 18.1865)
(8.37142 -250 -11.2929)
(-11.2385 -250 11.1887)
(-18.4043 -250 18.5355)
(-10.8899 -250 11.2061)
(-18.3783 -250 18.8835)
(-10.5426 -250 11.2409)
(-18.3349 -250 19.2298)
(-10.1975 -250 11.2929)
(-18.2742 -250 19.5736)
(9.41244 -250 -11.1887)
(9.76147 -250 -11.1887)
(-9.8554 -250 11.362)
(-18.1966 -250 19.9138)
(16.5088 -250 -19.2298)
(16.5522 -250 -18.8835)
(16.4482 -250 -19.5736)
(-9.51716 -250 11.4482)
(-18.1021 -250 20.2498)
(-9.18364 -250 11.551)
(-8.85566 -250 11.6704)
(-17.8634 -250 20.9056)
(-8.53403 -250 11.806)
(-17.7198 -250 21.2237)
(-8.21957 -250 11.9574)
(-17.5606 -250 21.5343)
(-7.91304 -250 12.1244)
(-17.3861 -250 21.8366)
(-7.61522 -250 12.3064)
(-17.1967 -250 22.1298)
(-7.32684 -250 12.503)
(-16.993 -250 22.4132)
(-7.04861 -250 12.7137)
(-16.7754 -250 22.686)
(-6.78124 -250 12.9381)
(-16.5444 -250 22.9477)
(-6.52539 -250 13.1755)
(-6.05073 -250 13.687)
(-16.3007 -250 23.1976)
(-16.0448 -250 23.435)
(-15.7775 -250 23.6594)
(-5.83312 -250 13.9599)
(-5.62937 -250 14.2433)
(-5.44001 -250 14.5365)
(16.4482 -250 -16.7995)
(-5.26549 -250 14.8388)
(11.4828 -250 -11.4482)
(11.1446 -250 -11.362)
(11.8164 -250 -11.551)
(10.8025 -250 -11.2929)
(12.1443 -250 -11.6704)
(12.466 -250 -11.806)
(10.4574 -250 -11.2409)
(10.1101 -250 -11.2061)
(12.7804 -250 -11.9574)
(-15.4992 -250 23.8701)
(-15.2109 -250 24.0667)
(-14.913 -250 24.2487)
(13.087 -250 -12.1244)
(13.3848 -250 -12.3064)
(13.6732 -250 -12.503)
(13.9514 -250 -12.7137)
(14.2188 -250 -12.9381)
(14.4746 -250 -13.1755)
(14.7183 -250 -13.4253)
(14.9493 -250 -13.687)
(15.1669 -250 -13.9599)
(-14.6065 -250 24.4156)
(-14.2921 -250 24.5671)
(-13.9704 -250 24.7026)
(15.56 -250 -14.5365)
(15.7345 -250 -14.8388)
(15.8937 -250 -15.1493)
(16.0373 -250 -15.4675)
(-13.6425 -250 24.822)
(-13.3089 -250 24.9249)
(-12.9707 -250 25.011)
(-12.6286 -250 25.0802)
(-12.2834 -250 25.1322)
(-11.9362 -250 25.167)
(4.45559 -250 13.4253)
(4.6993 -250 13.1755)
(4.95516 -250 12.9381)
(4.22465 -250 13.687)
(5.22253 -250 12.7137)
(4.00703 -250 13.9599)
(5.50075 -250 12.503)
(3.80328 -250 14.2433)
(5.78913 -250 12.3064)
(3.61392 -250 14.5365)
(-5.10626 -250 15.1493)
(3.4394 -250 14.8388)
(6.39348 -250 11.9574)
(3.28017 -250 15.1493)
(6.70795 -250 11.806)
(-4.96271 -250 15.4675)
(7.02957 -250 11.6704)
(3.00911 -250 15.7924)
(-4.83519 -250 15.7924)
(7.35755 -250 11.551)
(2.89795 -250 16.1232)
(-4.72403 -250 16.1232)
(7.69107 -250 11.4482)
(2.80342 -250 16.4592)
(-4.6295 -250 16.4592)
(8.02931 -250 11.362)
(2.72575 -250 16.7995)
(-4.55184 -250 16.7995)
(-4.49123 -250 17.1432)
(-11.5876 -250 25.1844)
(-11.2385 -250 25.1844)
(-10.8899 -250 25.167)
(2.66514 -250 17.1432)
(8.71655 -250 11.2409)
(2.62174 -250 17.4896)
(-4.44783 -250 17.4896)
(-4.42174 -250 17.8376)
(2.59566 -250 17.8376)
(-4.41304 -250 18.1865)
(2.58696 -250 18.1865)
(9.76147 -250 11.1887)
(2.59566 -250 18.5355)
(-4.42174 -250 18.5355)
(10.1101 -250 11.2061)
(2.62174 -250 18.8835)
(-4.44783 -250 18.8835)
(10.4574 -250 11.2409)
(2.66514 -250 19.2298)
(-4.49123 -250 19.2298)
(-10.5426 -250 25.1322)
(-10.1975 -250 25.0802)
(-9.8554 -250 25.011)
(10.8025 -250 11.2929)
(2.72575 -250 19.5736)
(-4.55184 -250 19.5736)
(11.1446 -250 11.362)
(2.80342 -250 19.9138)
(11.4828 -250 11.4482)
(2.89795 -250 20.2498)
(-4.72403 -250 20.2498)
(3.00911 -250 20.5807)
(-4.83519 -250 20.5807)
(12.1443 -250 11.6704)
(-4.96271 -250 20.9056)
(-5.10626 -250 21.2237)
(3.13662 -250 20.9056)
(-9.51716 -250 24.9249)
(-9.18364 -250 24.822)
(12.466 -250 11.806)
(3.28017 -250 21.2237)
(12.7804 -250 11.9574)
(-5.26549 -250 21.5343)
(3.4394 -250 21.5343)
(13.087 -250 12.1244)
(3.61392 -250 21.8366)
(-5.44001 -250 21.8366)
(-5.62937 -250 22.1298)
(-5.83312 -250 22.4132)
(3.80328 -250 22.1298)
(-8.85566 -250 24.7026)
(-8.53403 -250 24.5671)
(-8.21957 -250 24.4156)
(4.00703 -250 22.4132)
(13.9514 -250 12.7137)
(4.22465 -250 22.686)
(-6.05073 -250 22.686)
(14.2188 -250 12.9381)
(34.306 -250 -6.93511)
(-6.28168 -250 22.9477)
(4.45559 -250 22.9477)
(14.4746 -250 13.1755)
(-7.91304 -250 24.2487)
(-7.61522 -250 24.0667)
(14.9493 -250 13.687)
(15.1669 -250 13.9599)
(15.3706 -250 14.2433)
(15.56 -250 14.5365)
(-7.32684 -250 23.8701)
(-7.04861 -250 23.6594)
(15.7345 -250 14.8388)
(15.8937 -250 15.1493)
(16.0373 -250 15.4675)
(16.1648 -250 15.7924)
(-6.78124 -250 23.435)
(-6.52539 -250 23.1976)
(4.6993 -250 23.1976)
(4.95516 -250 23.435)
(5.22253 -250 23.6594)
(5.50075 -250 23.8701)
(5.78913 -250 24.0667)
(6.08696 -250 24.2487)
(6.39348 -250 24.4156)
(6.70795 -250 24.5671)
(34.6091 -250 5.21648)
(7.02957 -250 24.7026)
(7.35755 -250 24.822)
(7.69107 -250 24.9249)
(8.02931 -250 25.011)
(8.37142 -250 25.0802)
(9.06385 -250 25.167)
(9.41244 -250 25.1844)
(10.1101 -250 25.167)
(11.1446 -250 25.011)
(11.4828 -250 24.9249)
(12.466 -250 24.5671)
(13.087 -250 24.2487)
(13.3848 -250 24.0667)
(13.9514 -250 23.6594)
(16.3705 -250 16.4592)
(14.2188 -250 23.435)
(14.4746 -250 23.1976)
(16.5522 -250 17.4896)
(15.1669 -250 22.4132)
(15.3706 -250 22.1298)
(16.5783 -250 17.8376)
(16.587 -250 18.1865)
(15.56 -250 21.8366)
(15.7345 -250 21.5343)
(16.5783 -250 18.5355)
(15.8937 -250 21.2237)
(16.0373 -250 20.9056)
(16.1648 -250 20.5807)
(16.276 -250 20.2498)
(26.8116 0 -22.4976)
(-9.92239 63.6795 -43.3974)
(-9.74928 63.1887 -44.2476)
(-9.47927 62.7088 -45.0787)
(-9.30874 62.4746 -45.4845)
(-9.11506 62.2448 -45.8824)
(-8.11938 61.3826 -47.3759)
(-6.42788 60.471 -48.9546)
(6.80173 60.636 -48.6689)
(8.66025 61.8013 -46.6506)
(9.62624 62.9471 -44.6661)
(9.74928 63.1887 -44.2476)
(9.84808 63.433 -43.8243)
(9.97204 63.9276 -42.9677)
(-8.11938 61.3826 -47.3759)
(-6.42788 60.471 -48.9546)
(-9.11506 62.2448 -45.8824)
(-9.30874 62.4746 -45.4845)
(-9.47927 62.7088 -45.0787)
(-9.74928 63.1887 -44.2476)
(-9.92239 63.6795 -43.3974)
(6.80173 60.636 -48.6689)
(8.66025 61.8013 -46.6506)
(9.62624 62.9471 -44.6661)
(9.84808 63.433 -43.8243)
(9.74928 63.1887 -44.2476)
(9.97204 63.9276 -42.9677)
(-16.5444 0 22.9477)
(-16.3007 0 23.1976)
(-16.0448 0 23.435)
(-16.7754 0 22.686)
(-15.7775 0 23.6594)
(-16.993 0 22.4132)
(-15.4992 0 23.8701)
(-17.1967 0 22.1298)
(-15.2109 0 24.0667)
(-17.3861 0 21.8366)
(-14.913 0 24.2487)
(-17.5606 0 21.5343)
(-14.6065 0 24.4156)
(-17.7198 0 21.2237)
(-14.2921 0 24.5671)
(-17.8634 0 20.9056)
(-13.9704 0 24.7026)
(-17.9909 0 20.5807)
(-13.6425 0 24.822)
(-18.1021 0 20.2498)
(-13.3089 0 24.9249)
(-18.1966 0 19.9138)
(-12.9707 0 25.011)
(-18.2742 0 19.5736)
(-12.6286 0 25.0802)
(-18.3349 0 19.2298)
(-12.2834 0 25.1322)
(-18.3783 0 18.8835)
(-11.9362 0 25.167)
(-18.4043 0 18.5355)
(-11.5876 0 25.1844)
(-18.413 0 18.1865)
(-11.2385 0 25.1844)
(-18.4043 0 17.8376)
(-10.8899 0 25.167)
(-18.3783 0 17.4896)
(-10.5426 0 25.1322)
(-18.3349 0 17.1432)
(-10.1975 0 25.0802)
(-18.2742 0 16.7995)
(-9.8554 0 25.011)
(-18.1966 0 16.4592)
(-9.51716 0 24.9249)
(-18.1021 0 16.1232)
(-9.18364 0 24.822)
(-17.9909 0 15.7924)
(-8.85566 0 24.7026)
(-8.53403 0 24.5671)
(-8.21957 0 24.4156)
(-7.91304 0 24.2487)
(-7.61522 0 24.0667)
(-7.32684 0 23.8701)
(-7.04861 0 23.6594)
(-6.78124 0 23.435)
(-17.7198 0 15.1493)
(-17.8634 0 15.4675)
(-6.52539 0 23.1976)
(-6.28168 0 22.9477)
(-17.5606 0 14.8388)
(-17.1967 0 14.2433)
(-17.3861 0 14.5365)
(-28.9043 0 -0.348921)
(-16.993 0 13.9599)
(-16.7754 0 13.687)
(-28.7742 0 -1.38702)
(-16.5444 0 13.4253)
(-28.6966 0 -1.7273)
(-16.3007 0 13.1755)
(-16.0448 0 12.9381)
(-28.4909 0 -2.39414)
(-15.4992 0 12.503)
(-15.7775 0 12.7137)
(-14.913 0 12.1244)
(-15.2109 0 12.3064)
(-14.2921 0 11.806)
(-14.6065 0 11.9574)
(-13.9704 0 11.6704)
(-13.6425 0 11.551)
(-13.3089 0 11.4482)
(-12.6286 0 11.2929)
(-12.9707 0 11.362)
(-12.2834 0 11.2409)
(-11.9362 0 11.2061)
(-11.5876 0 11.1887)
(4.45559 0 22.9477)
(4.6993 0 23.1976)
(4.95516 0 23.435)
(-6.05073 0 22.686)
(4.22465 0 22.686)
(5.22253 0 23.6594)
(-5.83312 0 22.4132)
(4.00703 0 22.4132)
(5.50075 0 23.8701)
(-5.62937 0 22.1298)
(3.80328 0 22.1298)
(5.78913 0 24.0667)
(-5.44001 0 21.8366)
(3.61392 0 21.8366)
(-5.26549 0 21.5343)
(-5.10626 0 21.2237)
(3.4394 0 21.5343)
(6.39348 0 24.4156)
(-4.96271 0 20.9056)
(3.28017 0 21.2237)
(6.70795 0 24.5671)
(3.13662 0 20.9056)
(7.02957 0 24.7026)
(-4.83519 0 20.5807)
(3.00911 0 20.5807)
(7.35755 0 24.822)
(-4.72403 0 20.2498)
(-4.6295 0 19.9138)
(2.89795 0 20.2498)
(7.69107 0 24.9249)
(2.80342 0 19.9138)
(8.02931 0 25.011)
(-4.55184 0 19.5736)
(2.72575 0 19.5736)
(8.37142 0 25.0802)
(-4.49123 0 19.2298)
(2.66514 0 19.2298)
(8.71655 0 25.1322)
(-4.44783 0 18.8835)
(-4.42174 0 18.5355)
(2.62174 0 18.8835)
(9.06385 0 25.167)
(2.59566 0 18.5355)
(9.41244 0 25.1844)
(-4.41304 0 18.1865)
(2.58696 0 18.1865)
(9.76147 0 25.1844)
(-4.42174 0 17.8376)
(2.59566 0 17.8376)
(-4.44783 0 17.4896)
(2.62174 0 17.4896)
(10.4574 0 25.1322)
(-4.49123 0 17.1432)
(2.66514 0 17.1432)
(10.8025 0 25.0802)
(-4.55184 0 16.7995)
(2.72575 0 16.7995)
(11.1446 0 25.011)
(-4.6295 0 16.4592)
(2.80342 0 16.4592)
(11.4828 0 24.9249)
(-4.72403 0 16.1232)
(-4.83519 0 15.7924)
(2.89795 0 16.1232)
(11.8164 0 24.822)
(3.00911 0 15.7924)
(12.1443 0 24.7026)
(3.13662 0 15.4675)
(-4.96271 0 15.4675)
(-5.10626 0 15.1493)
(12.466 0 24.5671)
(3.28017 0 15.1493)
(12.7804 0 24.4156)
(3.4394 0 14.8388)
(-5.26549 0 14.8388)
(13.087 0 24.2487)
(3.61392 0 14.5365)
(-9.18364 0 11.551)
(-9.51716 0 11.4482)
(-9.8554 0 11.362)
(-8.85566 0 11.6704)
(-10.1975 0 11.2929)
(-10.5426 0 11.2409)
(-8.53403 0 11.806)
(-10.8899 0 11.2061)
(-7.91304 0 12.1244)
(-8.21957 0 11.9574)
(-11.2385 0 11.1887)
(-7.61522 0 12.3064)
(13.6732 0 23.8701)
(-7.32684 0 12.503)
(-6.78124 0 12.9381)
(-7.04861 0 12.7137)
(-6.52539 0 13.1755)
(13.9514 0 23.6594)
(-6.28168 0 13.4253)
(14.2188 0 23.435)
(-5.83312 0 13.9599)
(-6.05073 0 13.687)
(14.4746 0 23.1976)
(-14.9478 0 0.696975)
(-5.62937 0 14.2433)
(14.7183 0 22.9477)
(-5.44001 0 14.5365)
(14.9493 0 22.686)
(4.00703 0 13.9599)
(3.80328 0 14.2433)
(15.1669 0 22.4132)
(15.3706 0 22.1298)
(4.45559 0 13.4253)
(4.22465 0 13.687)
(4.6993 0 13.1755)
(-15.224 0 -2.06329)
(15.56 0 21.8366)
(15.7345 0 21.5343)
(4.95516 0 12.9381)
(5.22253 0 12.7137)
(5.50075 0 12.503)
(6.08696 0 12.1244)
(5.78913 0 12.3064)
(-16.5444 0 -13.4253)
(-16.3007 0 -13.1755)
(-16.0448 0 -12.9381)
(-16.7754 0 -13.687)
(15.8937 0 21.2237)
(16.0373 0 20.9056)
(16.1648 0 20.5807)
(-15.7775 0 -12.7137)
(-16.993 0 -13.9599)
(-15.4992 0 -12.503)
(6.70795 0 11.806)
(-17.1967 0 -14.2433)
(-15.2109 0 -12.3064)
(-21.7385 0 -6.99782)
(-17.3861 0 -14.5365)
(-14.913 0 -12.1244)
(-22.0876 0 -6.99782)
(-17.5606 0 -14.8388)
(-14.6065 0 -11.9574)
(-17.7198 0 -15.1493)
(-14.2921 0 -11.806)
(-17.8634 0 -15.4675)
(-13.9704 0 -11.6704)
(-17.9909 0 -15.7924)
(-13.6425 0 -11.551)
(7.02957 0 11.6704)
(-13.3089 0 -11.4482)
(-18.1966 0 -16.4592)
(-12.9707 0 -11.362)
(7.35755 0 11.551)
(-18.2742 0 -16.7995)
(-12.6286 0 -11.2929)
(-18.3349 0 -17.1432)
(-12.2834 0 -11.2409)
(7.69107 0 11.4482)
(-18.3783 0 -17.4896)
(-11.9362 0 -11.2061)
(16.276 0 20.2498)
(16.3705 0 19.9138)
(-18.4043 0 -17.8376)
(-11.5876 0 -11.1887)
(-18.413 0 -18.1865)
(8.71655 0 11.2409)
(8.37142 0 11.2929)
(-11.2385 0 -11.1887)
(-18.4043 0 -18.5355)
(-10.8899 0 -11.2061)
(-18.3783 0 -18.8835)
(-10.5426 0 -11.2409)
(-18.3349 0 -19.2298)
(9.06385 0 11.2061)
(-10.1975 0 -11.2929)
(-18.2742 0 -19.5736)
(9.41244 0 11.1887)
(-9.8554 0 -11.362)
(-18.1966 0 -19.9138)
(16.5088 0 19.2298)
(16.5522 0 18.8835)
(-9.51716 0 -11.4482)
(-18.1021 0 -20.2498)
(-9.18364 0 -11.551)
(-17.9909 0 -20.5807)
(-8.85566 0 -11.6704)
(-17.8634 0 -20.9056)
(-8.53403 0 -11.806)
(-17.7198 0 -21.2237)
(-8.21957 0 -11.9574)
(-17.5606 0 -21.5343)
(-7.91304 0 -12.1244)
(16.5783 0 18.5355)
(16.587 0 18.1865)
(-17.3861 0 -21.8366)
(-7.61522 0 -12.3064)
(-17.1967 0 -22.1298)
(-16.993 0 -22.4132)
(-7.04861 0 -12.7137)
(-16.7754 0 -22.686)
(-6.78124 0 -12.9381)
(-16.5444 0 -22.9477)
(-6.52539 0 -13.1755)
(16.5783 0 17.8376)
(16.5522 0 17.4896)
(-6.28168 0 -13.4253)
(-6.05073 0 -13.687)
(-15.7775 0 -23.6594)
(-16.0448 0 -23.435)
(-16.3007 0 -23.1976)
(-5.83312 0 -13.9599)
(-5.62937 0 -14.2433)
(-5.44001 0 -14.5365)
(16.5088 0 17.1432)
(16.4482 0 16.7995)
(-5.26549 0 -14.8388)
(11.4828 0 11.4482)
(11.1446 0 11.362)
(11.8164 0 11.551)
(12.466 0 11.806)
(12.1443 0 11.6704)
(10.1101 0 11.2061)
(13.087 0 12.1244)
(12.7804 0 11.9574)
(-14.913 0 -24.2487)
(-15.2109 0 -24.0667)
(-15.4992 0 -23.8701)
(9.76147 0 11.1887)
(13.3848 0 12.3064)
(13.9514 0 12.7137)
(13.6732 0 12.503)
(14.4746 0 13.1755)
(14.2188 0 12.9381)
(16.3705 0 16.4592)
(16.276 0 16.1232)
(14.9493 0 13.687)
(14.7183 0 13.4253)
(15.1669 0 13.9599)
(15.3706 0 14.2433)
(15.56 0 14.5365)
(-13.9704 0 -24.7026)
(-14.2921 0 -24.5671)
(-14.6065 0 -24.4156)
(15.8937 0 15.1493)
(15.7345 0 14.8388)
(16.0373 0 15.4675)
(13.1651 0 -1.0433)
(16.1648 0 15.7924)
(13.2257 0 -1.38702)
(13.3034 0 -1.7273)
(-12.9707 0 -25.011)
(-13.3089 0 -24.9249)
(-13.6425 0 -24.822)
(13.6366 0 -2.71904)
(13.7802 0 -3.03719)
(-11.9362 0 -25.167)
(-12.6286 0 -25.0802)
(14.1139 0 -3.65005)
(4.45559 0 -13.4253)
(4.6993 0 -13.1755)
(4.95516 0 -12.9381)
(4.22465 0 -13.687)
(5.22253 0 -12.7137)
(4.00703 0 -13.9599)
(5.50075 0 -12.503)
(3.80328 0 -14.2433)
(5.78913 0 -12.3064)
(3.61392 0 -14.5365)
(6.08696 0 -12.1244)
(3.4394 0 -14.8388)
(6.39348 0 -11.9574)
(3.28017 0 -15.1493)
(6.70795 0 -11.806)
(-4.96271 0 -15.4675)
(3.13662 0 -15.4675)
(7.02957 0 -11.6704)
(3.00911 0 -15.7924)
(-4.83519 0 -15.7924)
(7.35755 0 -11.551)
(2.89795 0 -16.1232)
(-4.72403 0 -16.1232)
(7.69107 0 -11.4482)
(2.80342 0 -16.4592)
(-4.6295 0 -16.4592)
(-4.55184 0 -16.7995)
(8.02931 0 -11.362)
(2.72575 0 -16.7995)
(-4.49123 0 -17.1432)
(8.37142 0 -11.2929)
(-10.8899 0 -25.167)
(-11.2385 0 -25.1844)
(-11.5876 0 -25.1844)
(2.66514 0 -17.1432)
(8.71655 0 -11.2409)
(2.62174 0 -17.4896)
(-4.44783 0 -17.4896)
(-4.42174 0 -17.8376)
(9.06385 0 -11.2061)
(2.59566 0 -17.8376)
(-4.41304 0 -18.1865)
(9.41244 0 -11.1887)
(-4.42174 0 -18.5355)
(2.58696 0 -18.1865)
(9.76147 0 -11.1887)
(2.59566 0 -18.5355)
(-4.44783 0 -18.8835)
(10.1101 0 -11.2061)
(14.3033 0 -3.94324)
(2.62174 0 -18.8835)
(10.4574 0 -11.2409)
(14.507 0 -4.22663)
(-4.49123 0 -19.2298)
(-4.55184 0 -19.5736)
(2.66514 0 -19.2298)
(-9.8554 0 -25.011)
(-10.1975 0 -25.0802)
(-10.5426 0 -25.1322)
(10.8025 0 -11.2929)
(2.72575 0 -19.5736)
(-4.6295 0 -19.9138)
(14.9556 0 -4.76121)
(11.1446 0 -11.362)
(2.80342 0 -19.9138)
(-4.72403 0 -20.2498)
(11.4828 0 -11.4482)
(15.1993 0 -5.01107)
(2.89795 0 -20.2498)
(-4.83519 0 -20.5807)
(11.8164 0 -11.551)
(-4.96271 0 -20.9056)
(3.00911 0 -20.5807)
(12.1443 0 -11.6704)
(15.7225 0 -5.47282)
(3.13662 0 -20.9056)
(-9.18364 0 -24.822)
(-9.51716 0 -24.9249)
(12.466 0 -11.806)
(16.2891 0 -5.88018)
(16.0008 0 -5.68357)
(3.28017 0 -21.2237)
(-5.10626 0 -21.2237)
(12.7804 0 -11.9574)
(3.4394 0 -21.5343)
(-5.26549 0 -21.5343)
(-5.44001 0 -21.8366)
(13.087 0 -12.1244)
(16.8935 0 -6.2291)
(16.587 0 -6.06218)
(3.61392 0 -21.8366)
(-5.62937 0 -22.1298)
(13.3848 0 -12.3064)
(3.80328 0 -22.1298)
(13.6732 0 -12.503)
(17.2079 0 -6.38054)
(-8.21957 0 -24.4156)
(-8.53403 0 -24.5671)
(-8.85566 0 -24.7026)
(4.00703 0 -22.4132)
(-5.83312 0 -22.4132)
(13.9514 0 -12.7137)
(17.8575 0 -6.63549)
(-6.05073 0 -22.686)
(4.22465 0 -22.686)
(14.2188 0 -12.9381)
(4.45559 0 -22.9477)
(-6.28168 0 -22.9477)
(14.4746 0 -13.1755)
(14.7183 0 -13.4253)
(-7.61522 0 -24.0667)
(-7.91304 0 -24.2487)
(14.9493 0 -13.687)
(15.1669 0 -13.9599)
(15.3706 0 -14.2433)
(19.5638 0 -6.98043)
(19.9124 0 -6.99782)
(15.56 0 -14.5365)
(-7.04861 0 -23.6594)
(-7.32684 0 -23.8701)
(15.7345 0 -14.8388)
(20.2615 0 -6.99782)
(15.8937 0 -15.1493)
(16.0373 0 -15.4675)
(20.9574 0 -6.94567)
(16.1648 0 -15.7924)
(21.3025 0 -6.89365)
(-6.78124 0 -23.435)
(-6.52539 0 -23.1976)
(16.276 0 -16.1232)
(4.6993 0 -23.1976)
(5.22253 0 -23.6594)
(4.95516 0 -23.435)
(27.0088 0 -1.0433)
(26.9482 0 -1.38702)
(5.78913 0 -24.0667)
(5.50075 0 -23.8701)
(26.8705 0 -1.7273)
(26.6648 0 -2.39414)
(6.70795 0 -24.5671)
(6.39348 0 -24.4156)
(6.08696 0 -24.2487)
(26.3937 0 -3.03719)
(7.35755 0 -24.822)
(7.02957 0 -24.7026)
(26.06 0 -3.65005)